REMARK  8 active torsions:
REMARK  status: ('A' for Active; 'I' for Inactive)
REMARK    1  A    between atoms: C_4  and  C_5 
REMARK    2  A    between atoms: C_11  and  N_12 
REMARK    3  A    between atoms: C_15  and  C_17 
REMARK    4  A    between atoms: C_17  and  O_18 
REMARK    5  A    between atoms: O_18  and  C_19 
REMARK    6  A    between atoms: C_19  and  C_20 
REMARK    7  A    between atoms: C_21  and  C_22 
REMARK    8  A    between atoms: C_32  and  C_33 
ROOT
ATOM      1  C   UNL d   1      -5.774   3.587  -0.789  0.00  0.00     0.149 C 
ATOM      2  N   UNL d   1      -6.118   2.233  -0.364  0.00  0.00    -0.349 N 
ATOM      3  C   UNL d   1      -7.310   1.828   0.133  0.00  0.00     0.096 A 
ATOM      4  C   UNL d   1      -7.271   0.469   0.430  0.00  0.00     0.022 A 
ATOM      5  C   UNL d   1      -5.992   0.046   0.092  0.00  0.00     0.009 A 
ATOM      6  C   UNL d   1      -5.376  -1.204   0.173  0.00  0.00     0.012 A 
ATOM      7  C   UNL d   1      -4.042  -1.312  -0.255  0.00  0.00     0.024 A 
ATOM      8  C   UNL d   1      -3.344  -0.185  -0.758  0.00  0.00     0.032 A 
ATOM      9  C   UNL d   1      -3.996   1.067  -0.817  0.00  0.00     0.049 A 
ATOM     10  C   UNL d   1      -5.322   1.146  -0.386  0.00  0.00     0.051 A 
ENDROOT
BRANCH   4  11
ATOM     11  C   UNL d   1      -8.384  -0.317   0.988  0.00  0.00     0.074 C 
ATOM     12  O   UNL d   1      -8.249  -1.547   1.221  0.00  0.00    -0.545 OA
ATOM     13  O   UNL d   1      -9.598   0.305   1.261  0.00  0.00    -0.545 OA
ENDBRANCH   4  11
BRANCH   8  14
ATOM     14  N   UNL d   1      -1.971  -0.308  -1.179  0.00  0.00    -0.330 N 
ATOM     15  C   UNL d   1      -0.986   0.707  -0.775  0.00  0.00     0.108 C 
ATOM     16  C   UNL d   1       0.451   0.176  -0.899  0.00  0.00     0.061 C 
ATOM     17  C   UNL d   1       0.528  -1.300  -0.447  0.00  0.00     0.138 C 
ATOM     18  F   UNL d   1       0.090  -1.379   0.868  0.00  0.00    -0.239 F 
ATOM     19  C   UNL d   1      -0.385  -2.202  -1.326  0.00  0.00     0.061 C 
ATOM     20  C   UNL d   1      -1.533  -1.437  -2.009  0.00  0.00     0.108 C 
BRANCH  17  21
ATOM     21  C   UNL d   1       1.982  -1.800  -0.496  0.00  0.00     0.200 C 
BRANCH  21  22
ATOM     22  O   UNL d   1       2.762  -1.072   0.431  0.00  0.00    -0.372 OA
BRANCH  22  23
ATOM     23  C   UNL d   1       4.132  -1.314   0.202  0.00  0.00     0.201 C 
BRANCH  23  24
ATOM     24  C   UNL d   1       4.931  -0.508   1.189  0.00  0.00     0.048 A 
ATOM     25  C   UNL d   1       5.192   0.846   1.059  0.00  0.00     0.122 A 
ATOM     26  N   UNL d   1       5.770   1.310   2.178  0.00  0.00    -0.078 NA
ATOM     27  O   UNL d   1       5.872   0.304   2.995  0.00  0.00    -0.358 OA
ATOM     28  C   UNL d   1       5.378  -0.803   2.484  0.00  0.00     0.146 A 
BRANCH  25  29
ATOM     29  C   UNL d   1       4.786   1.708  -0.065  0.00  0.00     0.041 A 
ATOM     30  C   UNL d   1       3.669   2.558   0.064  0.00  0.00     0.052 A 
ATOM     31 CL   UNL d   1       2.742   2.638   1.559  0.00  0.00    -0.083 Cl
ATOM     32  C   UNL d   1       3.260   3.344  -1.019  0.00  0.00     0.021 A 
ATOM     33  C   UNL d   1       3.958   3.295  -2.227  0.00  0.00     0.003 A 
ATOM     34  C   UNL d   1       5.070   2.461  -2.360  0.00  0.00     0.021 A 
ATOM     35  C   UNL d   1       5.489   1.667  -1.287  0.00  0.00     0.052 A 
ATOM     36 CL   UNL d   1       6.906   0.643  -1.498  0.00  0.00    -0.083 Cl
ENDBRANCH  25  29
BRANCH  28  37
ATOM     37  C   UNL d   1       5.362  -2.074   3.309  0.00  0.00     0.058 A 
ATOM     38  C   UNL d   1       5.736  -3.357   2.588  0.00  0.00     0.012 A 
ATOM     39  C   UNL d   1       4.297  -3.123   3.042  0.00  0.00     0.012 A 
ENDBRANCH  28  37
ENDBRANCH  23  24
ENDBRANCH  22  23
ENDBRANCH  21  22
ENDBRANCH  17  21
ENDBRANCH   8  14
TORSDOF 8
