7
     RDKit          3D

 60 64  0  0  0  0  0  0  0  0999 V2000
    7.9734   -0.5808    1.4273 O   0  0  0  0  0  0  0  0  0  0  0  0
    7.1047   -0.4861    2.3449 C   0  0  0  0  0  0  0  0  0  0  0  0
    7.4527   -0.8385    3.6397 O   0  0  0  0  0  0  0  0  0  0  0  0
    5.7794   -0.0098    1.9914 C   0  0  0  0  0  0  0  0  0  0  0  0
    5.4426    0.3349    0.7165 C   0  0  0  0  0  0  0  0  0  0  0  0
    4.1852    0.7828    0.4020 C   0  0  0  0  0  0  0  0  0  0  0  0
    3.1835    0.9090    1.3735 C   0  0  0  0  0  0  0  0  0  0  0  0
    1.9183    1.3830    0.9779 N   0  0  0  0  0  0  0  0  0  0  0  0
    1.6968    1.8994   -0.3732 C   0  0  0  0  0  0  0  0  0  0  0  0
    0.2638    2.3828   -0.4175 C   0  0  0  0  0  0  0  0  0  0  0  0
   -0.6300    1.1413   -0.1795 C   0  0  0  0  0  0  0  0  0  0  0  0
   -0.1938    0.1954   -1.0803 F   0  0  0  0  0  0  0  0  0  0  0  0
   -2.0511    1.5546   -0.4214 C   0  0  0  0  0  0  0  0  0  0  0  0
   -3.0373    0.6694   -0.3272 O   0  0  0  0  0  0  0  0  0  0  0  0
   -3.3634   -0.0221    0.7741 C   0  0  0  0  0  0  0  0  0  0  0  0
   -4.5637   -0.8597    0.4396 C   0  0  0  0  0  0  0  0  0  0  0  0
   -5.8537   -0.3829    0.3287 C   0  0  0  0  0  0  0  0  0  0  0  0
   -6.3062    0.9929    0.5091 C   0  0  0  0  0  0  0  0  0  0  0  0
   -6.7018    1.4458    1.7513 C   0  0  0  0  0  0  0  0  0  0  0  0
   -6.6511    0.3334    3.1153 Cl  0  0  0  0  0  0  0  0  0  0  0  0
   -7.1365    2.7538    1.9460 C   0  0  0  0  0  0  0  0  0  0  0  0
   -7.1901    3.6535    0.9032 C   0  0  0  0  0  0  0  0  0  0  0  0
   -6.7909    3.1963   -0.3500 C   0  0  0  0  0  0  0  0  0  0  0  0
   -6.3625    1.8979   -0.5284 C   0  0  0  0  0  0  0  0  0  0  0  0
   -5.8778    1.3998   -2.1324 Cl  0  0  0  0  0  0  0  0  0  0  0  0
   -6.5845   -1.4849    0.0168 N   0  0  0  0  0  0  0  0  0  0  0  0
   -5.8078   -2.5195   -0.0522 O   0  0  0  0  0  0  0  0  0  0  0  0
   -4.5592   -2.2126    0.1947 C   0  0  0  0  0  0  0  0  0  0  0  0
   -3.4124   -3.1566    0.1989 C   0  0  0  0  0  0  0  0  0  0  0  0
   -2.6531   -3.3778   -1.1040 C   0  0  0  0  0  0  0  0  0  0  0  0
   -3.5793   -4.4073   -0.5886 C   0  0  0  0  0  0  0  0  0  0  0  0
   -0.4409    0.7077    1.2393 C   0  0  0  0  0  0  0  0  0  0  0  0
    0.7997    1.3801    1.8663 C   0  0  0  0  0  0  0  0  0  0  0  0
    3.5329    0.5608    2.6477 C   0  0  0  0  0  0  0  0  0  0  0  0
    4.8099    0.1065    2.9633 C   0  0  0  0  0  0  0  0  0  0  0  0
    8.4243   -0.6392    3.9116 H   0  0  0  0  0  0  0  0  0  0  0  0
    6.2178    0.2410   -0.0552 H   0  0  0  0  0  0  0  0  0  0  0  0
    3.9246    1.0540   -0.6079 H   0  0  0  0  0  0  0  0  0  0  0  0
    1.9221    1.1521   -1.1409 H   0  0  0  0  0  0  0  0  0  0  0  0
    2.3633    2.7682   -0.5268 H   0  0  0  0  0  0  0  0  0  0  0  0
    0.1059    3.1059    0.3753 H   0  0  0  0  0  0  0  0  0  0  0  0
    0.0406    2.7820   -1.4068 H   0  0  0  0  0  0  0  0  0  0  0  0
   -2.0824    1.9854   -1.4832 H   0  0  0  0  0  0  0  0  0  0  0  0
   -2.2772    2.5057    0.1860 H   0  0  0  0  0  0  0  0  0  0  0  0
   -2.5562   -0.7420    1.0408 H   0  0  0  0  0  0  0  0  0  0  0  0
   -3.5653    0.5774    1.6881 H   0  0  0  0  0  0  0  0  0  0  0  0
   -7.4491    3.1119    2.9271 H   0  0  0  0  0  0  0  0  0  0  0  0
   -7.5294    4.6662    1.0672 H   0  0  0  0  0  0  0  0  0  0  0  0
   -6.8387    3.9191   -1.1647 H   0  0  0  0  0  0  0  0  0  0  0  0
   -2.8396   -3.1441    1.1419 H   0  0  0  0  0  0  0  0  0  0  0  0
   -2.9563   -2.7970   -1.9975 H   0  0  0  0  0  0  0  0  0  0  0  0
   -1.5584   -3.4646   -0.9969 H   0  0  0  0  0  0  0  0  0  0  0  0
   -4.5323   -4.5393   -1.1497 H   0  0  0  0  0  0  0  0  0  0  0  0
   -3.1351   -5.3530   -0.2552 H   0  0  0  0  0  0  0  0  0  0  0  0
   -0.2894   -0.3996    1.3288 H   0  0  0  0  0  0  0  0  0  0  0  0
   -1.2583    0.9793    1.9292 H   0  0  0  0  0  0  0  0  0  0  0  0
    0.9989    0.7798    2.7662 H   0  0  0  0  0  0  0  0  0  0  0  0
    0.5123    2.3918    2.2273 H   0  0  0  0  0  0  0  0  0  0  0  0
    2.8258    0.6323    3.4530 H   0  0  0  0  0  0  0  0  0  0  0  0
    5.0852   -0.1690    3.9730 H   0  0  0  0  0  0  0  0  0  0  0  0
  1  2  2  0
  2  3  1  0
  2  4  1  0
  4  5  2  0
  5  6  1  0
  6  7  2  0
  7  8  1  0
  8  9  1  0
  9 10  1  0
 10 11  1  0
 11 12  1  0
 11 13  1  0
 13 14  1  0
 14 15  1  0
 15 16  1  0
 16 17  1  0
 17 18  1  0
 18 19  2  0
 19 20  1  0
 19 21  1  0
 21 22  2  0
 22 23  1  0
 23 24  2  0
 24 25  1  0
 17 26  2  0
 26 27  1  0
 27 28  1  0
 28 29  1  0
 29 30  1  0
 30 31  1  0
 11 32  1  0
 32 33  1  0
  7 34  1  0
 34 35  2  0
 35  4  1  0
 33  8  1  0
 28 16  2  0
 31 29  1  0
 24 18  1  0
  3 36  1  0
  5 37  1  0
  6 38  1  0
  9 39  1  0
  9 40  1  0
 10 41  1  0
 10 42  1  0
 13 43  1  0
 13 44  1  0
 15 45  1  0
 15 46  1  0
 21 47  1  0
 22 48  1  0
 23 49  1  0
 29 50  1  0
 30 51  1  0
 30 52  1  0
 31 53  1  0
 31 54  1  0
 32 55  1  0
 32 56  1  0
 33 57  1  0
 33 58  1  0
 34 59  1  0
 35 60  1  0
M  END
>  <pEC50>  (1) 
5.706

$$$$
8
     RDKit          3D

 66 71  0  0  0  0  0  0  0  0999 V2000
   10.1318   -1.9607   -0.4061 O   0  0  0  0  0  0  0  0  0  0  0  0
    9.6486   -1.3233    0.5671 C   0  0  0  0  0  0  0  0  0  0  0  0
   10.4717   -1.0366    1.6310 O   0  0  0  0  0  0  0  0  0  0  0  0
    8.2472   -0.9093    0.5450 C   0  0  0  0  0  0  0  0  0  0  0  0
    7.7645   -0.2146    1.6368 C   0  0  0  0  0  0  0  0  0  0  0  0
    6.4440    0.1834    1.6328 C   0  0  0  0  0  0  0  0  0  0  0  0
    5.5858   -0.0926    0.5663 C   0  0  0  0  0  0  0  0  0  0  0  0
    4.2704    0.3276    0.6111 C   0  0  0  0  0  0  0  0  0  0  0  0
    3.4115    0.0637   -0.4302 C   0  0  0  0  0  0  0  0  0  0  0  0
    2.0567    0.4993   -0.3956 N   0  0  0  0  0  0  0  0  0  0  0  0
    1.1449    0.0524   -1.3981 C   0  0  0  0  0  0  0  0  0  0  0  0
   -0.2959    0.0854   -1.0125 C   0  0  0  0  0  0  0  0  0  0  0  0
   -0.6483    1.1018    0.0229 C   0  0  0  0  0  0  0  0  0  0  0  0
   -0.6761    0.5266    1.2638 F   0  0  0  0  0  0  0  0  0  0  0  0
   -1.9679    1.7274   -0.2901 C   0  0  0  0  0  0  0  0  0  0  0  0
   -2.9843    0.8486   -0.3575 O   0  0  0  0  0  0  0  0  0  0  0  0
   -3.3161    0.1047    0.7218 C   0  0  0  0  0  0  0  0  0  0  0  0
   -4.5042   -0.7447    0.4035 C   0  0  0  0  0  0  0  0  0  0  0  0
   -5.8082   -0.3400    0.3183 C   0  0  0  0  0  0  0  0  0  0  0  0
   -6.3469    1.0018    0.5157 C   0  0  0  0  0  0  0  0  0  0  0  0
   -6.4416    1.8595   -0.5714 C   0  0  0  0  0  0  0  0  0  0  0  0
   -5.9205    1.3337   -2.1536 Cl  0  0  0  0  0  0  0  0  0  0  0  0
   -6.9509    3.1228   -0.3783 C   0  0  0  0  0  0  0  0  0  0  0  0
   -7.3735    3.5719    0.8617 C   0  0  0  0  0  0  0  0  0  0  0  0
   -7.2822    2.7250    1.9458 C   0  0  0  0  0  0  0  0  0  0  0  0
   -6.7710    1.4620    1.7435 C   0  0  0  0  0  0  0  0  0  0  0  0
   -6.6694    0.4068    3.1524 Cl  0  0  0  0  0  0  0  0  0  0  0  0
   -6.4982   -1.4647    0.0078 N   0  0  0  0  0  0  0  0  0  0  0  0
   -5.7016   -2.4869   -0.0940 O   0  0  0  0  0  0  0  0  0  0  0  0
   -4.4709   -2.0899    0.1409 C   0  0  0  0  0  0  0  0  0  0  0  0
   -3.2495   -2.9152    0.1324 C   0  0  0  0  0  0  0  0  0  0  0  0
   -2.4692   -3.1042   -1.1185 C   0  0  0  0  0  0  0  0  0  0  0  0
   -3.3938   -4.2105   -0.6706 C   0  0  0  0  0  0  0  0  0  0  0  0
    0.4533    2.1714    0.1058 C   0  0  0  0  0  0  0  0  0  0  0  0
    1.6566    1.3960    0.6670 C   0  0  0  0  0  0  0  0  0  0  0  0
    3.9207   -0.6360   -1.5154 C   0  0  0  0  0  0  0  0  0  0  0  0
    5.2366   -1.0441   -1.5360 C   0  0  0  0  0  0  0  0  0  0  0  0
    6.1110   -0.7883   -0.5019 C   0  0  0  0  0  0  0  0  0  0  0  0
    7.4300   -1.2042   -0.5346 C   0  0  0  0  0  0  0  0  0  0  0  0
   11.4801   -0.8663    1.5087 H   0  0  0  0  0  0  0  0  0  0  0  0
    8.4369   -0.0064    2.4577 H   0  0  0  0  0  0  0  0  0  0  0  0
    6.0422    0.7285    2.4760 H   0  0  0  0  0  0  0  0  0  0  0  0
    3.9499    0.8723    1.5061 H   0  0  0  0  0  0  0  0  0  0  0  0
    1.3920   -1.0244   -1.6263 H   0  0  0  0  0  0  0  0  0  0  0  0
    1.3145    0.6013   -2.3449 H   0  0  0  0  0  0  0  0  0  0  0  0
   -0.6348   -0.9148   -0.6383 H   0  0  0  0  0  0  0  0  0  0  0  0
   -0.9102    0.2880   -1.9143 H   0  0  0  0  0  0  0  0  0  0  0  0
   -1.8798    2.2223   -1.3030 H   0  0  0  0  0  0  0  0  0  0  0  0
   -2.1778    2.5697    0.4288 H   0  0  0  0  0  0  0  0  0  0  0  0
   -3.5477    0.7729    1.5919 H   0  0  0  0  0  0  0  0  0  0  0  0
   -2.5108   -0.6074    1.0537 H   0  0  0  0  0  0  0  0  0  0  0  0
   -7.0459    3.8377   -1.2052 H   0  0  0  0  0  0  0  0  0  0  0  0
   -7.7750    4.5821    0.9899 H   0  0  0  0  0  0  0  0  0  0  0  0
   -7.6152    3.0882    2.9066 H   0  0  0  0  0  0  0  0  0  0  0  0
   -2.7141   -2.9850    1.1049 H   0  0  0  0  0  0  0  0  0  0  0  0
   -2.7451   -2.4494   -1.9548 H   0  0  0  0  0  0  0  0  0  0  0  0
   -1.3814   -3.3453   -1.0062 H   0  0  0  0  0  0  0  0  0  0  0  0
   -4.3400   -4.3958   -1.2079 H   0  0  0  0  0  0  0  0  0  0  0  0
   -2.9549   -5.0995   -0.2132 H   0  0  0  0  0  0  0  0  0  0  0  0
    0.1314    2.9756    0.7598 H   0  0  0  0  0  0  0  0  0  0  0  0
    0.7415    2.4727   -0.9185 H   0  0  0  0  0  0  0  0  0  0  0  0
    2.4505    2.1062    0.9667 H   0  0  0  0  0  0  0  0  0  0  0  0
    1.3212    0.7855    1.5344 H   0  0  0  0  0  0  0  0  0  0  0  0
    3.2693   -0.8648   -2.3659 H   0  0  0  0  0  0  0  0  0  0  0  0
    5.6416   -1.5948   -2.3885 H   0  0  0  0  0  0  0  0  0  0  0  0
    7.8163   -1.7550   -1.3984 H   0  0  0  0  0  0  0  0  0  0  0  0
  1  2  2  0
  2  3  1  0
  2  4  1  0
  4  5  2  0
  5  6  1  0
  6  7  2  0
  7  8  1  0
  8  9  2  0
  9 10  1  0
 10 11  1  0
 11 12  1  0
 12 13  1  0
 13 14  1  0
 13 15  1  0
 15 16  1  0
 16 17  1  0
 17 18  1  0
 18 19  1  0
 19 20  1  0
 20 21  2  0
 21 22  1  0
 21 23  1  0
 23 24  2  0
 24 25  1  0
 25 26  2  0
 26 27  1  0
 19 28  2  0
 28 29  1  0
 29 30  1  0
 30 31  1  0
 31 32  1  0
 32 33  1  0
 13 34  1  0
 34 35  1  0
  9 36  1  0
 36 37  2  0
 37 38  1  0
 38 39  2  0
 39  4  1  0
 38  7  1  0
 35 10  1  0
 30 18  2  0
 33 31  1  0
 26 20  1  0
  3 40  1  0
  5 41  1  0
  6 42  1  0
  8 43  1  0
 11 44  1  0
 11 45  1  0
 12 46  1  0
 12 47  1  0
 15 48  1  0
 15 49  1  0
 17 50  1  0
 17 51  1  0
 23 52  1  0
 24 53  1  0
 25 54  1  0
 31 55  1  0
 32 56  1  0
 32 57  1  0
 33 58  1  0
 33 59  1  0
 34 60  1  0
 34 61  1  0
 35 62  1  0
 35 63  1  0
 36 64  1  0
 37 65  1  0
 39 66  1  0
M  END
>  <pEC50>  (2) 
5.959

$$$$
9
     RDKit          3D

 59 63  0  0  0  0  0  0  0  0999 V2000
    8.1421   -0.4968    0.2204 O   0  0  0  0  0  0  0  0  0  0  0  0
    7.3122   -0.9663   -0.5866 C   0  0  0  0  0  0  0  0  0  0  0  0
    7.7899   -1.8105   -1.5742 O   0  0  0  0  0  0  0  0  0  0  0  0
    5.8895   -0.6393   -0.4952 C   0  0  0  0  0  0  0  0  0  0  0  0
    5.4494    0.2081    0.5051 C   0  0  0  0  0  0  0  0  0  0  0  0
    4.0934    0.5089    0.5777 C   0  0  0  0  0  0  0  0  0  0  0  0
    3.1970   -0.0255   -0.3293 C   0  0  0  0  0  0  0  0  0  0  0  0
    1.8074    0.2652   -0.2875 N   0  0  0  0  0  0  0  0  0  0  0  0
    0.9199   -0.4627   -1.2069 C   0  0  0  0  0  0  0  0  0  0  0  0
   -0.4901   -0.2926   -0.5826 C   0  0  0  0  0  0  0  0  0  0  0  0
   -0.8518    1.1325   -0.8559 C   0  0  0  0  0  0  0  0  0  0  0  0
   -0.5112    1.3698   -2.2019 F   0  0  0  0  0  0  0  0  0  0  0  0
   -2.2780    1.5168   -0.7175 C   0  0  0  0  0  0  0  0  0  0  0  0
   -2.9390    1.4254    0.4003 O   0  0  0  0  0  0  0  0  0  0  0  0
   -3.3122    0.4087    1.1495 C   0  0  0  0  0  0  0  0  0  0  0  0
   -4.2477   -0.5834    0.5959 C   0  0  0  0  0  0  0  0  0  0  0  0
   -5.5945   -0.2832    0.3203 C   0  0  0  0  0  0  0  0  0  0  0  0
   -6.2020    1.0109    0.5349 C   0  0  0  0  0  0  0  0  0  0  0  0
   -6.2767    1.9139   -0.5031 C   0  0  0  0  0  0  0  0  0  0  0  0
   -5.6821    1.5814   -2.1131 Cl  0  0  0  0  0  0  0  0  0  0  0  0
   -6.8559    3.1717   -0.3070 C   0  0  0  0  0  0  0  0  0  0  0  0
   -7.3608    3.5446    0.9010 C   0  0  0  0  0  0  0  0  0  0  0  0
   -7.2959    2.6503    1.9590 C   0  0  0  0  0  0  0  0  0  0  0  0
   -6.7220    1.4175    1.7462 C   0  0  0  0  0  0  0  0  0  0  0  0
   -6.6455    0.2968    3.0882 Cl  0  0  0  0  0  0  0  0  0  0  0  0
   -6.1023   -1.4348   -0.1384 N   0  0  0  0  0  0  0  0  0  0  0  0
   -5.2010   -2.3592   -0.1559 O   0  0  0  0  0  0  0  0  0  0  0  0
   -4.0270   -1.8839    0.2927 C   0  0  0  0  0  0  0  0  0  0  0  0
   -2.8534   -2.7724    0.3686 C   0  0  0  0  0  0  0  0  0  0  0  0
   -2.9176   -3.9335    1.3771 C   0  0  0  0  0  0  0  0  0  0  0  0
   -2.0219   -2.7528    1.6272 C   0  0  0  0  0  0  0  0  0  0  0  0
    0.0775    2.0153   -0.0458 C   0  0  0  0  0  0  0  0  0  0  0  0
    1.2102    1.2327    0.5979 C   0  0  0  0  0  0  0  0  0  0  0  0
    3.6992   -0.8647   -1.3042 C   0  0  0  0  0  0  0  0  0  0  0  0
    5.0238   -1.1592   -1.3761 N   0  0  0  0  0  0  0  0  0  0  0  0
    8.7545   -1.7983   -1.9050 H   0  0  0  0  0  0  0  0  0  0  0  0
    6.1151    0.6416    1.2265 H   0  0  0  0  0  0  0  0  0  0  0  0
    3.7781    1.1643    1.3609 H   0  0  0  0  0  0  0  0  0  0  0  0
    1.1716   -1.5185   -1.2941 H   0  0  0  0  0  0  0  0  0  0  0  0
    0.9006    0.0971   -2.1531 H   0  0  0  0  0  0  0  0  0  0  0  0
   -1.1831   -1.0068   -1.0673 H   0  0  0  0  0  0  0  0  0  0  0  0
   -0.3176   -0.4989    0.4869 H   0  0  0  0  0  0  0  0  0  0  0  0
   -2.7993    1.0174   -1.6111 H   0  0  0  0  0  0  0  0  0  0  0  0
   -2.3172    2.6127   -1.0676 H   0  0  0  0  0  0  0  0  0  0  0  0
   -3.6999    0.7665    2.1759 H   0  0  0  0  0  0  0  0  0  0  0  0
   -2.3857   -0.1613    1.4675 H   0  0  0  0  0  0  0  0  0  0  0  0
   -6.9159    3.8873   -1.1261 H   0  0  0  0  0  0  0  0  0  0  0  0
   -7.8196    4.5136    1.0953 H   0  0  0  0  0  0  0  0  0  0  0  0
   -7.7006    2.9485    2.9286 H   0  0  0  0  0  0  0  0  0  0  0  0
   -2.3005   -3.0227   -0.5642 H   0  0  0  0  0  0  0  0  0  0  0  0
   -2.4772   -4.8972    1.0562 H   0  0  0  0  0  0  0  0  0  0  0  0
   -3.8787   -4.0080    1.9248 H   0  0  0  0  0  0  0  0  0  0  0  0
   -0.9411   -3.0062    1.5592 H   0  0  0  0  0  0  0  0  0  0  0  0
   -2.3085   -2.1854    2.5217 H   0  0  0  0  0  0  0  0  0  0  0  0
    0.5440    2.7938   -0.6791 H   0  0  0  0  0  0  0  0  0  0  0  0
   -0.4674    2.5428    0.7546 H   0  0  0  0  0  0  0  0  0  0  0  0
    0.8726    0.8009    1.5480 H   0  0  0  0  0  0  0  0  0  0  0  0
    2.0119    1.9826    0.8584 H   0  0  0  0  0  0  0  0  0  0  0  0
    3.0454   -1.3097   -2.0395 H   0  0  0  0  0  0  0  0  0  0  0  0
  1  2  2  0
  2  3  1  0
  2  4  1  0
  4  5  2  0
  5  6  1  0
  6  7  2  0
  7  8  1  0
  8  9  1  0
  9 10  1  0
 10 11  1  0
 11 12  1  0
 11 13  1  0
 13 14  1  0
 14 15  1  0
 15 16  1  0
 16 17  1  0
 17 18  1  0
 18 19  2  0
 19 20  1  0
 19 21  1  0
 21 22  2  0
 22 23  1  0
 23 24  2  0
 24 25  1  0
 17 26  2  0
 26 27  1  0
 27 28  1  0
 28 29  1  0
 29 30  1  0
 30 31  1  0
 11 32  1  0
 32 33  1  0
  7 34  1  0
 34 35  2  0
 35  4  1  0
 33  8  1  0
 28 16  2  0
 31 29  1  0
 24 18  1  0
  3 36  1  0
  5 37  1  0
  6 38  1  0
  9 39  1  0
  9 40  1  0
 10 41  1  0
 10 42  1  0
 13 43  1  0
 13 44  1  0
 15 45  1  0
 15 46  1  0
 21 47  1  0
 22 48  1  0
 23 49  1  0
 29 50  1  0
 30 51  1  0
 30 52  1  0
 31 53  1  0
 31 54  1  0
 32 55  1  0
 32 56  1  0
 33 57  1  0
 33 58  1  0
 34 59  1  0
M  END
>  <pEC50>  (3) 
5.431

$$$$
10
     RDKit          3D

 67 72  0  0  0  0  0  0  0  0999 V2000
    6.7344    3.5825    0.1056 C   0  0  0  0  0  0  0  0  0  0  0  0
    6.8291    2.1611    0.3528 N   0  0  0  0  0  0  0  0  0  0  0  0
    7.8978    1.4250    0.7372 C   0  0  0  0  0  0  0  0  0  0  0  0
    7.5408    0.0971    0.8584 C   0  0  0  0  0  0  0  0  0  0  0  0
    8.3829   -1.0247    1.2471 C   0  0  0  0  0  0  0  0  0  0  0  0
    7.9285   -2.1827    1.3188 O   0  0  0  0  0  0  0  0  0  0  0  0
    9.7200   -0.8082    1.5453 O   0  0  0  0  0  0  0  0  0  0  0  0
    6.1875    0.0224    0.5317 C   0  0  0  0  0  0  0  0  0  0  0  0
    5.3240   -1.0511    0.4865 C   0  0  0  0  0  0  0  0  0  0  0  0
    4.0217   -0.8114    0.1226 C   0  0  0  0  0  0  0  0  0  0  0  0
    3.5497    0.4656   -0.1986 C   0  0  0  0  0  0  0  0  0  0  0  0
    2.1926    0.5832   -0.5590 N   0  0  0  0  0  0  0  0  0  0  0  0
    1.3215   -0.5804   -0.6717 C   0  0  0  0  0  0  0  0  0  0  0  0
   -0.1069   -0.1746   -0.9017 C   0  0  0  0  0  0  0  0  0  0  0  0
   -0.5748    0.8901    0.0537 C   0  0  0  0  0  0  0  0  0  0  0  0
   -0.6751    0.3316    1.3057 F   0  0  0  0  0  0  0  0  0  0  0  0
   -1.8797    1.4965   -0.3322 C   0  0  0  0  0  0  0  0  0  0  0  0
   -2.9616    0.6969   -0.4491 O   0  0  0  0  0  0  0  0  0  0  0  0
   -3.3812   -0.0164    0.6176 C   0  0  0  0  0  0  0  0  0  0  0  0
   -4.6127   -0.8036    0.3581 C   0  0  0  0  0  0  0  0  0  0  0  0
   -5.8799   -0.3005    0.3096 C   0  0  0  0  0  0  0  0  0  0  0  0
   -6.3230    1.0772    0.5013 C   0  0  0  0  0  0  0  0  0  0  0  0
   -6.6709    1.4812    1.7724 C   0  0  0  0  0  0  0  0  0  0  0  0
   -6.5756    0.3501    3.1029 Cl  0  0  0  0  0  0  0  0  0  0  0  0
   -7.0896    2.7882    1.9490 C   0  0  0  0  0  0  0  0  0  0  0  0
   -7.1576    3.6566    0.8951 C   0  0  0  0  0  0  0  0  0  0  0  0
   -6.8010    3.2160   -0.3630 C   0  0  0  0  0  0  0  0  0  0  0  0
   -6.3729    1.9077   -0.5896 C   0  0  0  0  0  0  0  0  0  0  0  0
   -5.9191    1.3481   -2.1914 Cl  0  0  0  0  0  0  0  0  0  0  0  0
   -6.7238   -1.3451    0.0413 N   0  0  0  0  0  0  0  0  0  0  0  0
   -5.9798   -2.4286   -0.0649 O   0  0  0  0  0  0  0  0  0  0  0  0
   -4.7131   -2.1423    0.1185 C   0  0  0  0  0  0  0  0  0  0  0  0
   -3.5877   -3.0921    0.0753 C   0  0  0  0  0  0  0  0  0  0  0  0
   -2.9467   -3.2814   -1.3331 C   0  0  0  0  0  0  0  0  0  0  0  0
   -3.7960   -4.3561   -0.7777 C   0  0  0  0  0  0  0  0  0  0  0  0
    0.4426    2.0079    0.1870 C   0  0  0  0  0  0  0  0  0  0  0  0
    1.5700    1.8575   -0.8373 C   0  0  0  0  0  0  0  0  0  0  0  0
    4.4514    1.4866   -0.1353 C   0  0  0  0  0  0  0  0  0  0  0  0
    5.7887    1.3040    0.2283 C   0  0  0  0  0  0  0  0  0  0  0  0
    7.6017    4.0639    0.6156 H   0  0  0  0  0  0  0  0  0  0  0  0
    5.7974    4.0264    0.4888 H   0  0  0  0  0  0  0  0  0  0  0  0
    6.8769    3.7610   -0.9768 H   0  0  0  0  0  0  0  0  0  0  0  0
    8.8891    1.8080    0.9244 H   0  0  0  0  0  0  0  0  0  0  0  0
   10.1721   -1.3591    2.2808 H   0  0  0  0  0  0  0  0  0  0  0  0
    5.6729   -2.0621    0.7357 H   0  0  0  0  0  0  0  0  0  0  0  0
    3.3402   -1.6335    0.0826 H   0  0  0  0  0  0  0  0  0  0  0  0
    1.3834   -1.1142    0.2964 H   0  0  0  0  0  0  0  0  0  0  0  0
    1.7200   -1.2350   -1.4484 H   0  0  0  0  0  0  0  0  0  0  0  0
   -0.1753    0.2437   -1.9261 H   0  0  0  0  0  0  0  0  0  0  0  0
   -0.7653   -1.0580   -0.8628 H   0  0  0  0  0  0  0  0  0  0  0  0
   -2.0958    2.2694    0.4792 H   0  0  0  0  0  0  0  0  0  0  0  0
   -1.7433    2.1580   -1.2388 H   0  0  0  0  0  0  0  0  0  0  0  0
   -2.5578   -0.6905    0.9652 H   0  0  0  0  0  0  0  0  0  0  0  0
   -3.5981    0.6493    1.4774 H   0  0  0  0  0  0  0  0  0  0  0  0
   -7.3671    3.1243    2.9386 H   0  0  0  0  0  0  0  0  0  0  0  0
   -7.4810    4.6896    0.9891 H   0  0  0  0  0  0  0  0  0  0  0  0
   -6.8418    3.8694   -1.2144 H   0  0  0  0  0  0  0  0  0  0  0  0
   -2.8556   -3.1385    0.8889 H   0  0  0  0  0  0  0  0  0  0  0  0
   -3.3717   -2.6704   -2.1530 H   0  0  0  0  0  0  0  0  0  0  0  0
   -1.8506   -3.3668   -1.3714 H   0  0  0  0  0  0  0  0  0  0  0  0
   -3.2802   -5.2832   -0.4708 H   0  0  0  0  0  0  0  0  0  0  0  0
   -4.8187   -4.4950   -1.2257 H   0  0  0  0  0  0  0  0  0  0  0  0
   -0.0777    2.9621    0.0690 H   0  0  0  0  0  0  0  0  0  0  0  0
    0.9469    1.9963    1.1707 H   0  0  0  0  0  0  0  0  0  0  0  0
    2.2147    2.7305   -0.6916 H   0  0  0  0  0  0  0  0  0  0  0  0
    1.1563    1.8894   -1.8701 H   0  0  0  0  0  0  0  0  0  0  0  0
    4.1469    2.4808   -0.3712 H   0  0  0  0  0  0  0  0  0  0  0  0
  1  2  1  0
  2  3  1  0
  3  4  2  0
  4  5  1  0
  5  6  2  0
  5  7  1  0
  4  8  1  0
  8  9  2  0
  9 10  1  0
 10 11  2  0
 11 12  1  0
 12 13  1  0
 13 14  1  0
 14 15  1  0
 15 16  1  0
 15 17  1  0
 17 18  1  0
 18 19  1  0
 19 20  1  0
 20 21  1  0
 21 22  1  0
 22 23  2  0
 23 24  1  0
 23 25  1  0
 25 26  2  0
 26 27  1  0
 27 28  2  0
 28 29  1  0
 21 30  2  0
 30 31  1  0
 31 32  1  0
 32 33  1  0
 33 34  1  0
 34 35  1  0
 15 36  1  0
 36 37  1  0
 11 38  1  0
 38 39  2  0
 39  2  1  0
 39  8  1  0
 37 12  1  0
 32 20  2  0
 35 33  1  0
 28 22  1  0
  1 40  1  0
  1 41  1  0
  1 42  1  0
  3 43  1  0
  7 44  1  0
  9 45  1  0
 10 46  1  0
 13 47  1  0
 13 48  1  0
 14 49  1  0
 14 50  1  0
 17 51  1  0
 17 52  1  0
 19 53  1  0
 19 54  1  0
 25 55  1  0
 26 56  1  0
 27 57  1  0
 33 58  1  0
 34 59  1  0
 34 60  1  0
 35 61  1  0
 35 62  1  0
 36 63  1  0
 36 64  1  0
 37 65  1  0
 37 66  1  0
 38 67  1  0
M  END
>  <pEC50>  (4) 
6.658

$$$$
11
     RDKit          3D

 62 67  0  0  0  0  0  0  0  0999 V2000
    7.4474    4.7128    2.0511 O   0  0  0  0  0  0  0  0  0  0  0  0
    8.0696    3.6657    1.7573 C   0  0  0  0  0  0  0  0  0  0  0  0
    9.4269    3.6201    1.9023 O   0  0  0  0  0  0  0  0  0  0  0  0
    7.3065    2.5212    1.2639 C   0  0  0  0  0  0  0  0  0  0  0  0
    8.0149    1.3850    0.9510 C   0  0  0  0  0  0  0  0  0  0  0  0
    7.3206    0.2834    0.4824 C   0  0  0  0  0  0  0  0  0  0  0  0
    5.9259    0.3578    0.3410 C   0  0  0  0  0  0  0  0  0  0  0  0
    4.6563   -0.7497   -0.1977 S   0  0  0  0  0  0  0  0  0  0  0  0
    3.2717    0.5198    0.0799 C   0  0  0  0  0  0  0  0  0  0  0  0
    1.9277    0.1430   -0.2135 N   0  0  0  0  0  0  0  0  0  0  0  0
    1.0990   -0.3765    0.8611 C   0  0  0  0  0  0  0  0  0  0  0  0
   -0.1053    0.5651    1.0510 C   0  0  0  0  0  0  0  0  0  0  0  0
   -0.5782    1.0729   -0.2507 C   0  0  0  0  0  0  0  0  0  0  0  0
    0.1731    2.2247   -0.5677 F   0  0  0  0  0  0  0  0  0  0  0  0
   -2.0013    1.4510   -0.4028 C   0  0  0  0  0  0  0  0  0  0  0  0
   -2.9865    0.6046   -0.2829 O   0  0  0  0  0  0  0  0  0  0  0  0
   -3.3742   -0.1559    0.7345 C   0  0  0  0  0  0  0  0  0  0  0  0
   -4.6455   -0.8945    0.4072 C   0  0  0  0  0  0  0  0  0  0  0  0
   -5.9019   -0.3680    0.3434 C   0  0  0  0  0  0  0  0  0  0  0  0
   -6.2872    1.0082    0.5570 C   0  0  0  0  0  0  0  0  0  0  0  0
   -6.6957    1.4537    1.7866 C   0  0  0  0  0  0  0  0  0  0  0  0
   -6.7656    0.3431    3.1361 Cl  0  0  0  0  0  0  0  0  0  0  0  0
   -7.0630    2.7857    1.9920 C   0  0  0  0  0  0  0  0  0  0  0  0
   -7.0059    3.6444    0.9282 C   0  0  0  0  0  0  0  0  0  0  0  0
   -6.5968    3.2142   -0.3186 C   0  0  0  0  0  0  0  0  0  0  0  0
   -6.2389    1.8903   -0.4916 C   0  0  0  0  0  0  0  0  0  0  0  0
   -5.7193    1.3640   -2.0702 Cl  0  0  0  0  0  0  0  0  0  0  0  0
   -6.7193   -1.3967    0.0242 N   0  0  0  0  0  0  0  0  0  0  0  0
   -6.0201   -2.4817   -0.1004 O   0  0  0  0  0  0  0  0  0  0  0  0
   -4.7325   -2.2116    0.1290 C   0  0  0  0  0  0  0  0  0  0  0  0
   -3.6770   -3.2339    0.0660 C   0  0  0  0  0  0  0  0  0  0  0  0
   -2.9121   -3.5626   -1.1341 C   0  0  0  0  0  0  0  0  0  0  0  0
   -4.0321   -4.4762   -0.7993 C   0  0  0  0  0  0  0  0  0  0  0  0
   -0.1606    0.0575   -1.3283 C   0  0  0  0  0  0  0  0  0  0  0  0
    1.3343    0.2518   -1.5300 C   0  0  0  0  0  0  0  0  0  0  0  0
    3.9026    1.4008    0.4631 N   0  0  0  0  0  0  0  0  0  0  0  0
    5.1982    1.5049    0.6551 C   0  0  0  0  0  0  0  0  0  0  0  0
    5.9288    2.5898    1.1227 C   0  0  0  0  0  0  0  0  0  0  0  0
    9.9735    4.2706    2.4532 H   0  0  0  0  0  0  0  0  0  0  0  0
    9.0775    1.3234    1.0575 H   0  0  0  0  0  0  0  0  0  0  0  0
    7.7901   -0.6512    0.2119 H   0  0  0  0  0  0  0  0  0  0  0  0
    1.6391   -0.3819    1.8236 H   0  0  0  0  0  0  0  0  0  0  0  0
    0.7967   -1.4056    0.6369 H   0  0  0  0  0  0  0  0  0  0  0  0
    0.3424    1.4433    1.6256 H   0  0  0  0  0  0  0  0  0  0  0  0
   -0.7922    0.0608    1.7017 H   0  0  0  0  0  0  0  0  0  0  0  0
   -2.1251    2.0390   -1.3931 H   0  0  0  0  0  0  0  0  0  0  0  0
   -2.1248    2.3483    0.3348 H   0  0  0  0  0  0  0  0  0  0  0  0
   -2.6135   -0.9392    1.0577 H   0  0  0  0  0  0  0  0  0  0  0  0
   -3.5792    0.4387    1.6439 H   0  0  0  0  0  0  0  0  0  0  0  0
   -7.3746    3.0697    2.9794 H   0  0  0  0  0  0  0  0  0  0  0  0
   -7.2907    4.6815    1.0778 H   0  0  0  0  0  0  0  0  0  0  0  0
   -6.5563    3.9010   -1.1478 H   0  0  0  0  0  0  0  0  0  0  0  0
   -3.2458   -3.5068    1.0549 H   0  0  0  0  0  0  0  0  0  0  0  0
   -1.9002   -4.0228   -0.9667 H   0  0  0  0  0  0  0  0  0  0  0  0
   -2.9916   -3.0283   -2.0886 H   0  0  0  0  0  0  0  0  0  0  0  0
   -3.9008   -5.4576   -0.3464 H   0  0  0  0  0  0  0  0  0  0  0  0
   -4.9595   -4.3828   -1.4133 H   0  0  0  0  0  0  0  0  0  0  0  0
   -0.3240   -0.9806   -1.0033 H   0  0  0  0  0  0  0  0  0  0  0  0
   -0.7381    0.2229   -2.2614 H   0  0  0  0  0  0  0  0  0  0  0  0
    1.7110   -0.4895   -2.2401 H   0  0  0  0  0  0  0  0  0  0  0  0
    1.5068    1.3090   -1.8781 H   0  0  0  0  0  0  0  0  0  0  0  0
    5.4791    3.5428    1.4029 H   0  0  0  0  0  0  0  0  0  0  0  0
  1  2  2  0
  2  3  1  0
  2  4  1  0
  4  5  2  0
  5  6  1  0
  6  7  2  0
  7  8  1  0
  8  9  1  0
  9 10  1  0
 10 11  1  0
 11 12  1  0
 12 13  1  0
 13 14  1  0
 13 15  1  0
 15 16  1  0
 16 17  1  0
 17 18  1  0
 18 19  1  0
 19 20  1  0
 20 21  2  0
 21 22  1  0
 21 23  1  0
 23 24  2  0
 24 25  1  0
 25 26  2  0
 26 27  1  0
 19 28  2  0
 28 29  1  0
 29 30  1  0
 30 31  1  0
 31 32  1  0
 32 33  1  0
 13 34  1  0
 34 35  1  0
  9 36  2  0
 36 37  1  0
 37 38  2  0
 38  4  1  0
 37  7  1  0
 35 10  1  0
 30 18  2  0
 33 31  1  0
 26 20  1  0
  3 39  1  0
  5 40  1  0
  6 41  1  0
 11 42  1  0
 11 43  1  0
 12 44  1  0
 12 45  1  0
 15 46  1  0
 15 47  1  0
 17 48  1  0
 17 49  1  0
 23 50  1  0
 24 51  1  0
 25 52  1  0
 31 53  1  0
 32 54  1  0
 32 55  1  0
 33 56  1  0
 33 57  1  0
 34 58  1  0
 34 59  1  0
 35 60  1  0
 35 61  1  0
 38 62  1  0
M  END
>  <pEC50>  (5) 
5.368

$$$$
12
     RDKit          3D

 62 67  0  0  0  0  0  0  0  0999 V2000
    9.8781   -2.0081   -0.1320 O   0  0  0  0  0  0  0  0  0  0  0  0
    9.6830   -1.0022   -0.8457 C   0  0  0  0  0  0  0  0  0  0  0  0
   10.7603   -0.4325   -1.4975 O   0  0  0  0  0  0  0  0  0  0  0  0
    8.3574   -0.4489   -0.9840 C   0  0  0  0  0  0  0  0  0  0  0  0
    8.0391    0.6395   -1.7304 C   0  0  0  0  0  0  0  0  0  0  0  0
    6.7879    1.1580   -1.8595 C   0  0  0  0  0  0  0  0  0  0  0  0
    6.6138    2.2569   -2.6420 F   0  0  0  0  0  0  0  0  0  0  0  0
    5.6929    0.5654   -1.1921 C   0  0  0  0  0  0  0  0  0  0  0  0
    4.4573    0.9309   -1.2108 N   0  0  0  0  0  0  0  0  0  0  0  0
    3.5012    0.3844   -0.6068 C   0  0  0  0  0  0  0  0  0  0  0  0
    2.1206    0.5795   -0.4617 N   0  0  0  0  0  0  0  0  0  0  0  0
    1.2106    0.0043   -1.4180 C   0  0  0  0  0  0  0  0  0  0  0  0
   -0.2053   -0.0968   -0.9874 C   0  0  0  0  0  0  0  0  0  0  0  0
   -0.6828    0.8753    0.0305 C   0  0  0  0  0  0  0  0  0  0  0  0
   -0.6143    0.2882    1.2708 F   0  0  0  0  0  0  0  0  0  0  0  0
   -1.9904    1.5154   -0.2941 C   0  0  0  0  0  0  0  0  0  0  0  0
   -3.0716    0.7134   -0.4538 O   0  0  0  0  0  0  0  0  0  0  0  0
   -3.4338   -0.0593    0.6472 C   0  0  0  0  0  0  0  0  0  0  0  0
   -4.6355   -0.8623    0.3872 C   0  0  0  0  0  0  0  0  0  0  0  0
   -5.9229   -0.3696    0.3288 C   0  0  0  0  0  0  0  0  0  0  0  0
   -6.3080    1.0187    0.5331 C   0  0  0  0  0  0  0  0  0  0  0  0
   -6.3230    1.8768   -0.5478 C   0  0  0  0  0  0  0  0  0  0  0  0
   -5.8940    1.3442   -2.1647 Cl  0  0  0  0  0  0  0  0  0  0  0  0
   -6.6777    3.2120   -0.4208 C   0  0  0  0  0  0  0  0  0  0  0  0
   -7.0194    3.6619    0.8335 C   0  0  0  0  0  0  0  0  0  0  0  0
   -7.0047    2.7994    1.9210 C   0  0  0  0  0  0  0  0  0  0  0  0
   -6.6500    1.4768    1.7779 C   0  0  0  0  0  0  0  0  0  0  0  0
   -6.6461    0.4131    3.1917 Cl  0  0  0  0  0  0  0  0  0  0  0  0
   -6.7166   -1.4163    0.0493 N   0  0  0  0  0  0  0  0  0  0  0  0
   -5.9991   -2.4901   -0.0616 O   0  0  0  0  0  0  0  0  0  0  0  0
   -4.7072   -2.1938    0.1405 C   0  0  0  0  0  0  0  0  0  0  0  0
   -3.6315   -3.2387    0.0819 C   0  0  0  0  0  0  0  0  0  0  0  0
   -3.6539   -4.3332    1.0832 C   0  0  0  0  0  0  0  0  0  0  0  0
   -2.5581   -3.3096    1.0740 C   0  0  0  0  0  0  0  0  0  0  0  0
    0.3441    2.0247    0.0959 C   0  0  0  0  0  0  0  0  0  0  0  0
    1.6195    1.3619    0.6446 C   0  0  0  0  0  0  0  0  0  0  0  0
    4.4237   -0.9923    0.2300 S   0  0  0  0  0  0  0  0  0  0  0  0
    6.0289   -0.5460   -0.4324 C   0  0  0  0  0  0  0  0  0  0  0  0
    7.2893   -1.0584   -0.3096 C   0  0  0  0  0  0  0  0  0  0  0  0
   11.7087   -0.4868   -1.1541 H   0  0  0  0  0  0  0  0  0  0  0  0
    8.8832    1.1147   -2.2593 H   0  0  0  0  0  0  0  0  0  0  0  0
    1.2555    0.5829   -2.3827 H   0  0  0  0  0  0  0  0  0  0  0  0
    1.6012   -1.0387   -1.6140 H   0  0  0  0  0  0  0  0  0  0  0  0
   -0.8528    0.0043   -1.9013 H   0  0  0  0  0  0  0  0  0  0  0  0
   -0.4075   -1.1316   -0.6225 H   0  0  0  0  0  0  0  0  0  0  0  0
   -2.1360    2.3370    0.4458 H   0  0  0  0  0  0  0  0  0  0  0  0
   -1.8389    2.0571   -1.2731 H   0  0  0  0  0  0  0  0  0  0  0  0
   -3.5904    0.5320    1.5566 H   0  0  0  0  0  0  0  0  0  0  0  0
   -2.5707   -0.7294    0.8252 H   0  0  0  0  0  0  0  0  0  0  0  0
   -6.6985    3.9051   -1.2443 H   0  0  0  0  0  0  0  0  0  0  0  0
   -7.2951    4.6955    0.9414 H   0  0  0  0  0  0  0  0  0  0  0  0
   -7.2767    3.1750    2.8937 H   0  0  0  0  0  0  0  0  0  0  0  0
   -3.3575   -3.4872   -0.9714 H   0  0  0  0  0  0  0  0  0  0  0  0
   -3.4654   -5.3534    0.6925 H   0  0  0  0  0  0  0  0  0  0  0  0
   -4.4108   -4.2378    1.9073 H   0  0  0  0  0  0  0  0  0  0  0  0
   -2.4486   -2.7076    1.9805 H   0  0  0  0  0  0  0  0  0  0  0  0
   -1.5608   -3.7247    0.7387 H   0  0  0  0  0  0  0  0  0  0  0  0
    0.5324    2.4555   -0.8918 H   0  0  0  0  0  0  0  0  0  0  0  0
   -0.0157    2.7161    0.8586 H   0  0  0  0  0  0  0  0  0  0  0  0
    2.3170    2.1286    0.9992 H   0  0  0  0  0  0  0  0  0  0  0  0
    1.2609    0.6806    1.4530 H   0  0  0  0  0  0  0  0  0  0  0  0
    7.4187   -1.9275    0.3129 H   0  0  0  0  0  0  0  0  0  0  0  0
  1  2  2  0
  2  3  1  0
  2  4  1  0
  4  5  2  0
  5  6  1  0
  6  7  1  0
  6  8  2  0
  8  9  1  0
  9 10  2  0
 10 11  1  0
 11 12  1  0
 12 13  1  0
 13 14  1  0
 14 15  1  0
 14 16  1  0
 16 17  1  0
 17 18  1  0
 18 19  1  0
 19 20  1  0
 20 21  1  0
 21 22  2  0
 22 23  1  0
 22 24  1  0
 24 25  2  0
 25 26  1  0
 26 27  2  0
 27 28  1  0
 20 29  2  0
 29 30  1  0
 30 31  1  0
 31 32  1  0
 32 33  1  0
 33 34  1  0
 14 35  1  0
 35 36  1  0
 10 37  1  0
 37 38  1  0
 38 39  2  0
 39  4  1  0
 38  8  1  0
 36 11  1  0
 31 19  2  0
 34 32  1  0
 27 21  1  0
  3 40  1  0
  5 41  1  0
 12 42  1  0
 12 43  1  0
 13 44  1  0
 13 45  1  0
 16 46  1  0
 16 47  1  0
 18 48  1  0
 18 49  1  0
 24 50  1  0
 25 51  1  0
 26 52  1  0
 32 53  1  0
 33 54  1  0
 33 55  1  0
 34 56  1  0
 34 57  1  0
 35 58  1  0
 35 59  1  0
 36 60  1  0
 36 61  1  0
 39 62  1  0
M  END
>  <pEC50>  (6) 
5.02

$$$$
13
     RDKit          3D

 63 68  0  0  0  0  0  0  0  0999 V2000
    8.5455    2.9147    3.3882 O   0  0  0  0  0  0  0  0  0  0  0  0
    8.2940    1.9633    2.6088 C   0  0  0  0  0  0  0  0  0  0  0  0
    9.3408    1.1765    2.1657 O   0  0  0  0  0  0  0  0  0  0  0  0
    6.9474    1.6587    2.1555 C   0  0  0  0  0  0  0  0  0  0  0  0
    5.8502    2.3984    2.5526 C   0  0  0  0  0  0  0  0  0  0  0  0
    4.5796    2.1172    2.1271 C   0  0  0  0  0  0  0  0  0  0  0  0
    4.4343    1.0354    1.2623 C   0  0  0  0  0  0  0  0  0  0  0  0
    3.3055    0.5047    0.6618 C   0  0  0  0  0  0  0  0  0  0  0  0
    1.9612    0.9491    0.7819 N   0  0  0  0  0  0  0  0  0  0  0  0
    1.5272    2.2632    0.4182 C   0  0  0  0  0  0  0  0  0  0  0  0
    0.2805    2.3356   -0.3881 C   0  0  0  0  0  0  0  0  0  0  0  0
   -0.6276    1.0760   -0.1415 C   0  0  0  0  0  0  0  0  0  0  0  0
   -0.0981    0.0990   -0.9447 F   0  0  0  0  0  0  0  0  0  0  0  0
   -2.0289    1.4457   -0.4881 C   0  0  0  0  0  0  0  0  0  0  0  0
   -3.0261    0.5868   -0.4514 O   0  0  0  0  0  0  0  0  0  0  0  0
   -3.4273   -0.1535    0.5868 C   0  0  0  0  0  0  0  0  0  0  0  0
   -4.6852   -0.9113    0.3200 C   0  0  0  0  0  0  0  0  0  0  0  0
   -5.9393   -0.3721    0.3049 C   0  0  0  0  0  0  0  0  0  0  0  0
   -6.3032    1.0160    0.5409 C   0  0  0  0  0  0  0  0  0  0  0  0
   -6.3484    1.8753   -0.5306 C   0  0  0  0  0  0  0  0  0  0  0  0
   -5.9816    1.3402   -2.1737 Cl  0  0  0  0  0  0  0  0  0  0  0  0
   -6.6835    3.2050   -0.3811 C   0  0  0  0  0  0  0  0  0  0  0  0
   -6.9757    3.6476    0.9018 C   0  0  0  0  0  0  0  0  0  0  0  0
   -6.9285    2.7797    1.9745 C   0  0  0  0  0  0  0  0  0  0  0  0
   -6.5916    1.4512    1.8095 C   0  0  0  0  0  0  0  0  0  0  0  0
   -6.5387    0.3547    3.1871 Cl  0  0  0  0  0  0  0  0  0  0  0  0
   -6.8028   -1.3854    0.0240 N   0  0  0  0  0  0  0  0  0  0  0  0
   -6.1166   -2.5018   -0.1282 O   0  0  0  0  0  0  0  0  0  0  0  0
   -4.8174   -2.2393    0.0480 C   0  0  0  0  0  0  0  0  0  0  0  0
   -3.7104   -3.2281   -0.0387 C   0  0  0  0  0  0  0  0  0  0  0  0
   -3.0398   -3.4591   -1.3534 C   0  0  0  0  0  0  0  0  0  0  0  0
   -4.0305   -4.4958   -0.8958 C   0  0  0  0  0  0  0  0  0  0  0  0
   -0.3645    0.7498    1.2934 C   0  0  0  0  0  0  0  0  0  0  0  0
    0.9815   -0.0039    1.3090 C   0  0  0  0  0  0  0  0  0  0  0  0
    3.7225   -0.5361   -0.0812 N   0  0  0  0  0  0  0  0  0  0  0  0
    5.0395   -0.6914    0.0149 N   0  0  0  0  0  0  0  0  0  0  0  0
    5.4881    0.2717    0.8400 C   0  0  0  0  0  0  0  0  0  0  0  0
    6.7466    0.5932    1.2945 C   0  0  0  0  0  0  0  0  0  0  0  0
   10.2983    1.3048    2.4983 H   0  0  0  0  0  0  0  0  0  0  0  0
    6.0046    3.2335    3.2276 H   0  0  0  0  0  0  0  0  0  0  0  0
    3.6927    2.6489    2.3970 H   0  0  0  0  0  0  0  0  0  0  0  0
    1.4483    2.9239    1.3238 H   0  0  0  0  0  0  0  0  0  0  0  0
    2.3514    2.7129   -0.1928 H   0  0  0  0  0  0  0  0  0  0  0  0
    0.5187    2.3790   -1.4645 H   0  0  0  0  0  0  0  0  0  0  0  0
   -0.3621    3.1868   -0.0998 H   0  0  0  0  0  0  0  0  0  0  0  0
   -2.2363    2.4105    0.0954 H   0  0  0  0  0  0  0  0  0  0  0  0
   -1.9903    1.8823   -1.5569 H   0  0  0  0  0  0  0  0  0  0  0  0
   -2.6076   -0.9472    0.7511 H   0  0  0  0  0  0  0  0  0  0  0  0
   -3.4490    0.4313    1.5184 H   0  0  0  0  0  0  0  0  0  0  0  0
   -6.7263    3.9123   -1.2183 H   0  0  0  0  0  0  0  0  0  0  0  0
   -7.2383    4.6712    1.0506 H   0  0  0  0  0  0  0  0  0  0  0  0
   -7.1579    3.1228    2.9936 H   0  0  0  0  0  0  0  0  0  0  0  0
   -3.1646   -3.4373    0.9073 H   0  0  0  0  0  0  0  0  0  0  0  0
   -1.9697   -3.7511   -1.3583 H   0  0  0  0  0  0  0  0  0  0  0  0
   -3.3320   -2.8081   -2.2022 H   0  0  0  0  0  0  0  0  0  0  0  0
   -3.6887   -5.4574   -0.4824 H   0  0  0  0  0  0  0  0  0  0  0  0
   -5.0109   -4.4801   -1.4251 H   0  0  0  0  0  0  0  0  0  0  0  0
   -1.0893    0.1863    1.8455 H   0  0  0  0  0  0  0  0  0  0  0  0
   -0.1366    1.7300    1.8262 H   0  0  0  0  0  0  0  0  0  0  0  0
    1.2402   -0.3176    2.3195 H   0  0  0  0  0  0  0  0  0  0  0  0
    0.8958   -0.8119    0.5719 H   0  0  0  0  0  0  0  0  0  0  0  0
    5.6457   -1.4101   -0.4477 H   0  0  0  0  0  0  0  0  0  0  0  0
    7.6142    0.0080    0.9795 H   0  0  0  0  0  0  0  0  0  0  0  0
  1  2  2  0
  2  3  1  0
  2  4  1  0
  4  5  2  0
  5  6  1  0
  6  7  2  0
  7  8  1  0
  8  9  1  0
  9 10  1  0
 10 11  1  0
 11 12  1  0
 12 13  1  0
 12 14  1  0
 14 15  1  0
 15 16  1  0
 16 17  1  0
 17 18  1  0
 18 19  1  0
 19 20  2  0
 20 21  1  0
 20 22  1  0
 22 23  2  0
 23 24  1  0
 24 25  2  0
 25 26  1  0
 18 27  2  0
 27 28  1  0
 28 29  1  0
 29 30  1  0
 30 31  1  0
 31 32  1  0
 12 33  1  0
 33 34  1  0
  8 35  2  0
 35 36  1  0
 36 37  1  0
 37 38  2  0
 38  4  1  0
 37  7  1  0
 34  9  1  0
 29 17  2  0
 32 30  1  0
 25 19  1  0
  3 39  1  0
  5 40  1  0
  6 41  1  0
 10 42  1  0
 10 43  1  0
 11 44  1  0
 11 45  1  0
 14 46  1  0
 14 47  1  0
 16 48  1  0
 16 49  1  0
 22 50  1  0
 23 51  1  0
 24 52  1  0
 30 53  1  0
 31 54  1  0
 31 55  1  0
 32 56  1  0
 32 57  1  0
 33 58  1  0
 33 59  1  0
 34 60  1  0
 34 61  1  0
 36 62  1  0
 38 63  1  0
M  END
>  <pEC50>  (7) 
5.551

$$$$
14
     RDKit          3D

 70 75  0  0  0  0  0  0  0  0999 V2000
    6.7389    0.3206    3.4182 C   0  0  0  0  0  0  0  0  0  0  0  0
    5.9606   -0.9601    3.3372 C   0  0  0  0  0  0  0  0  0  0  0  0
    5.9829   -1.4445    1.9780 N   0  0  0  0  0  0  0  0  0  0  0  0
    6.9173   -2.2739    1.4853 C   0  0  0  0  0  0  0  0  0  0  0  0
    6.6444   -2.5364    0.1690 C   0  0  0  0  0  0  0  0  0  0  0  0
    7.4147   -3.3884   -0.7277 C   0  0  0  0  0  0  0  0  0  0  0  0
    8.4323   -3.9640   -0.3152 O   0  0  0  0  0  0  0  0  0  0  0  0
    7.0126   -3.5583   -2.0443 O   0  0  0  0  0  0  0  0  0  0  0  0
    5.4839   -1.8204   -0.1280 C   0  0  0  0  0  0  0  0  0  0  0  0
    4.7474   -1.6973   -1.2759 C   0  0  0  0  0  0  0  0  0  0  0  0
    3.6183   -0.9022   -1.2823 C   0  0  0  0  0  0  0  0  0  0  0  0
    3.1800   -0.2098   -0.1760 C   0  0  0  0  0  0  0  0  0  0  0  0
    2.0329    0.6116   -0.2107 N   0  0  0  0  0  0  0  0  0  0  0  0
    1.3471    1.0429    1.0003 C   0  0  0  0  0  0  0  0  0  0  0  0
   -0.1646    0.7747    0.8485 C   0  0  0  0  0  0  0  0  0  0  0  0
   -0.6120    1.4965   -0.3696 C   0  0  0  0  0  0  0  0  0  0  0  0
    0.0939    2.7338   -0.3330 F   0  0  0  0  0  0  0  0  0  0  0  0
   -2.0277    1.8475   -0.4976 C   0  0  0  0  0  0  0  0  0  0  0  0
   -3.0115    0.9425   -0.5042 O   0  0  0  0  0  0  0  0  0  0  0  0
   -3.3031    0.1694    0.5598 C   0  0  0  0  0  0  0  0  0  0  0  0
   -4.4485   -0.7470    0.3360 C   0  0  0  0  0  0  0  0  0  0  0  0
   -5.7676   -0.3926    0.3311 C   0  0  0  0  0  0  0  0  0  0  0  0
   -6.2977    0.9430    0.5434 C   0  0  0  0  0  0  0  0  0  0  0  0
   -6.4889    1.7954   -0.5263 C   0  0  0  0  0  0  0  0  0  0  0  0
   -6.0682    1.1991   -2.1155 Cl  0  0  0  0  0  0  0  0  0  0  0  0
   -6.9850    3.0638   -0.3934 C   0  0  0  0  0  0  0  0  0  0  0  0
   -7.3221    3.5465    0.8683 C   0  0  0  0  0  0  0  0  0  0  0  0
   -7.1407    2.7163    1.9504 C   0  0  0  0  0  0  0  0  0  0  0  0
   -6.6384    1.4396    1.7917 C   0  0  0  0  0  0  0  0  0  0  0  0
   -6.4059    0.3765    3.1776 Cl  0  0  0  0  0  0  0  0  0  0  0  0
   -6.4659   -1.5390    0.0891 N   0  0  0  0  0  0  0  0  0  0  0  0
   -5.6189   -2.5419   -0.0468 O   0  0  0  0  0  0  0  0  0  0  0  0
   -4.3725   -2.0922    0.0985 C   0  0  0  0  0  0  0  0  0  0  0  0
   -3.1396   -2.9148    0.0149 C   0  0  0  0  0  0  0  0  0  0  0  0
   -2.5164   -3.0551   -1.3561 C   0  0  0  0  0  0  0  0  0  0  0  0
   -3.3017   -4.2116   -0.8018 C   0  0  0  0  0  0  0  0  0  0  0  0
   -0.0042    0.7906   -1.5759 C   0  0  0  0  0  0  0  0  0  0  0  0
    1.5016    1.0812   -1.4660 C   0  0  0  0  0  0  0  0  0  0  0  0
    3.9509   -0.3594    0.9663 C   0  0  0  0  0  0  0  0  0  0  0  0
    5.0813   -1.1441    1.0068 C   0  0  0  0  0  0  0  0  0  0  0  0
    6.6136    0.7972    4.4235 H   0  0  0  0  0  0  0  0  0  0  0  0
    7.8096    0.1332    3.2674 H   0  0  0  0  0  0  0  0  0  0  0  0
    6.3719    0.9932    2.6225 H   0  0  0  0  0  0  0  0  0  0  0  0
    4.9216   -0.8030    3.6979 H   0  0  0  0  0  0  0  0  0  0  0  0
    6.4915   -1.6995    3.9815 H   0  0  0  0  0  0  0  0  0  0  0  0
    7.7730   -2.6910    2.0244 H   0  0  0  0  0  0  0  0  0  0  0  0
    7.4831   -4.2130   -2.6720 H   0  0  0  0  0  0  0  0  0  0  0  0
    5.0597   -2.2233   -2.1596 H   0  0  0  0  0  0  0  0  0  0  0  0
    3.0881   -0.8630   -2.2238 H   0  0  0  0  0  0  0  0  0  0  0  0
    1.6637    0.3828    1.8190 H   0  0  0  0  0  0  0  0  0  0  0  0
    1.4947    2.0769    1.2666 H   0  0  0  0  0  0  0  0  0  0  0  0
   -0.2028   -0.3375    0.7871 H   0  0  0  0  0  0  0  0  0  0  0  0
   -0.6497    1.1704    1.7436 H   0  0  0  0  0  0  0  0  0  0  0  0
   -2.1349    2.5061   -1.4273 H   0  0  0  0  0  0  0  0  0  0  0  0
   -2.2763    2.5879    0.3560 H   0  0  0  0  0  0  0  0  0  0  0  0
   -2.4158   -0.3758    0.9184 H   0  0  0  0  0  0  0  0  0  0  0  0
   -3.5589    0.8720    1.4188 H   0  0  0  0  0  0  0  0  0  0  0  0
   -7.1399    3.7423   -1.2206 H   0  0  0  0  0  0  0  0  0  0  0  0
   -7.7195    4.5564    0.9959 H   0  0  0  0  0  0  0  0  0  0  0  0
   -7.4039    3.0957    2.9273 H   0  0  0  0  0  0  0  0  0  0  0  0
   -2.4847   -2.9987    0.9068 H   0  0  0  0  0  0  0  0  0  0  0  0
   -1.4301   -3.2072   -1.4571 H   0  0  0  0  0  0  0  0  0  0  0  0
   -3.0093   -2.4550   -2.1730 H   0  0  0  0  0  0  0  0  0  0  0  0
   -2.7755   -5.1057   -0.4188 H   0  0  0  0  0  0  0  0  0  0  0  0
   -4.2879   -4.3863   -1.2728 H   0  0  0  0  0  0  0  0  0  0  0  0
   -0.1175   -0.3101   -1.5195 H   0  0  0  0  0  0  0  0  0  0  0  0
   -0.3674    1.1742   -2.5273 H   0  0  0  0  0  0  0  0  0  0  0  0
    2.0499    0.7836   -2.3562 H   0  0  0  0  0  0  0  0  0  0  0  0
    1.5488    2.2181   -1.4561 H   0  0  0  0  0  0  0  0  0  0  0  0
    3.6465    0.1656    1.8470 H   0  0  0  0  0  0  0  0  0  0  0  0
  1  2  1  0
  2  3  1  0
  3  4  1  0
  4  5  2  0
  5  6  1  0
  6  7  2  0
  6  8  1  0
  5  9  1  0
  9 10  2  0
 10 11  1  0
 11 12  2  0
 12 13  1  0
 13 14  1  0
 14 15  1  0
 15 16  1  0
 16 17  1  0
 16 18  1  0
 18 19  1  0
 19 20  1  0
 20 21  1  0
 21 22  1  0
 22 23  1  0
 23 24  2  0
 24 25  1  0
 24 26  1  0
 26 27  2  0
 27 28  1  0
 28 29  2  0
 29 30  1  0
 22 31  2  0
 31 32  1  0
 32 33  1  0
 33 34  1  0
 34 35  1  0
 35 36  1  0
 16 37  1  0
 37 38  1  0
 12 39  1  0
 39 40  2  0
 40  3  1  0
 40  9  1  0
 38 13  1  0
 33 21  2  0
 36 34  1  0
 29 23  1  0
  1 41  1  0
  1 42  1  0
  1 43  1  0
  2 44  1  0
  2 45  1  0
  4 46  1  0
  8 47  1  0
 10 48  1  0
 11 49  1  0
 14 50  1  0
 14 51  1  0
 15 52  1  0
 15 53  1  0
 18 54  1  0
 18 55  1  0
 20 56  1  0
 20 57  1  0
 26 58  1  0
 27 59  1  0
 28 60  1  0
 34 61  1  0
 35 62  1  0
 35 63  1  0
 36 64  1  0
 36 65  1  0
 37 66  1  0
 37 67  1  0
 38 68  1  0
 38 69  1  0
 39 70  1  0
M  END
>  <pEC50>  (8) 
6.398

$$$$
15
     RDKit          3D

 63 68  0  0  0  0  0  0  0  0999 V2000
    7.9677   -2.1972   -2.1185 O   0  0  0  0  0  0  0  0  0  0  0  0
    8.4028   -1.5110   -1.1618 C   0  0  0  0  0  0  0  0  0  0  0  0
    9.7758   -1.5518   -0.9466 O   0  0  0  0  0  0  0  0  0  0  0  0
    7.5109   -0.7242   -0.3356 C   0  0  0  0  0  0  0  0  0  0  0  0
    7.7917    0.0827    0.7439 C   0  0  0  0  0  0  0  0  0  0  0  0
    6.6700    0.6141    1.2013 O   0  0  0  0  0  0  0  0  0  0  0  0
    5.6488    0.1959    0.4716 C   0  0  0  0  0  0  0  0  0  0  0  0
    4.2844    0.4711    0.5559 C   0  0  0  0  0  0  0  0  0  0  0  0
    3.3862   -0.0983   -0.3422 C   0  0  0  0  0  0  0  0  0  0  0  0
    1.9723    0.1793   -0.2607 N   0  0  0  0  0  0  0  0  0  0  0  0
    1.1379   -0.4094   -1.2518 C   0  0  0  0  0  0  0  0  0  0  0  0
   -0.1697    0.2926   -1.3512 C   0  0  0  0  0  0  0  0  0  0  0  0
   -0.8025    0.4651    0.0425 C   0  0  0  0  0  0  0  0  0  0  0  0
   -0.8362   -0.7229    0.6785 F   0  0  0  0  0  0  0  0  0  0  0  0
   -2.1540    1.0388   -0.1945 C   0  0  0  0  0  0  0  0  0  0  0  0
   -2.9544    1.3010    0.8409 O   0  0  0  0  0  0  0  0  0  0  0  0
   -3.4705    0.2779    1.5806 C   0  0  0  0  0  0  0  0  0  0  0  0
   -4.3787   -0.6079    0.8196 C   0  0  0  0  0  0  0  0  0  0  0  0
   -5.6350   -0.1501    0.3765 C   0  0  0  0  0  0  0  0  0  0  0  0
   -6.1979    1.1714    0.5799 C   0  0  0  0  0  0  0  0  0  0  0  0
   -6.0216    2.1763   -0.3466 C   0  0  0  0  0  0  0  0  0  0  0  0
   -5.1203    1.9119   -1.8160 Cl  0  0  0  0  0  0  0  0  0  0  0  0
   -6.5527    3.4441   -0.1603 C   0  0  0  0  0  0  0  0  0  0  0  0
   -7.2830    3.7530    0.9660 C   0  0  0  0  0  0  0  0  0  0  0  0
   -7.4650    2.7534    1.8996 C   0  0  0  0  0  0  0  0  0  0  0  0
   -6.9354    1.4940    1.7109 C   0  0  0  0  0  0  0  0  0  0  0  0
   -7.1832    0.2458    2.9142 Cl  0  0  0  0  0  0  0  0  0  0  0  0
   -6.1627   -1.2106   -0.2515 N   0  0  0  0  0  0  0  0  0  0  0  0
   -5.3643   -2.2116   -0.2193 O   0  0  0  0  0  0  0  0  0  0  0  0
   -4.2355   -1.9045    0.4341 C   0  0  0  0  0  0  0  0  0  0  0  0
   -3.1164   -2.8676    0.6459 C   0  0  0  0  0  0  0  0  0  0  0  0
   -3.5474   -4.0225    1.5683 C   0  0  0  0  0  0  0  0  0  0  0  0
   -2.4769   -3.0528    1.9664 C   0  0  0  0  0  0  0  0  0  0  0  0
    0.0992    1.4548    0.7656 C   0  0  0  0  0  0  0  0  0  0  0  0
    1.5073    1.0034    0.7898 C   0  0  0  0  0  0  0  0  0  0  0  0
    3.9203   -0.9299   -1.2944 C   0  0  0  0  0  0  0  0  0  0  0  0
    5.2691   -1.2112   -1.3896 C   0  0  0  0  0  0  0  0  0  0  0  0
    6.1463   -0.6474   -0.5031 C   0  0  0  0  0  0  0  0  0  0  0  0
   10.4479   -1.7149   -1.6808 H   0  0  0  0  0  0  0  0  0  0  0  0
    8.7837    0.2436    1.1412 H   0  0  0  0  0  0  0  0  0  0  0  0
    3.9202    1.1325    1.3277 H   0  0  0  0  0  0  0  0  0  0  0  0
    1.6030   -0.3386   -2.2770 H   0  0  0  0  0  0  0  0  0  0  0  0
    0.9955   -1.4934   -1.0041 H   0  0  0  0  0  0  0  0  0  0  0  0
   -0.9128   -0.2483   -1.9551 H   0  0  0  0  0  0  0  0  0  0  0  0
    0.0169    1.3344   -1.7057 H   0  0  0  0  0  0  0  0  0  0  0  0
   -2.0461    1.9224   -0.9089 H   0  0  0  0  0  0  0  0  0  0  0  0
   -2.6885    0.2867   -0.8724 H   0  0  0  0  0  0  0  0  0  0  0  0
   -2.6212   -0.3002    1.9891 H   0  0  0  0  0  0  0  0  0  0  0  0
   -4.0461    0.6566    2.4586 H   0  0  0  0  0  0  0  0  0  0  0  0
   -6.4089    4.2430   -0.9035 H   0  0  0  0  0  0  0  0  0  0  0  0
   -7.7038    4.7550    1.1159 H   0  0  0  0  0  0  0  0  0  0  0  0
   -8.0390    3.0012    2.7827 H   0  0  0  0  0  0  0  0  0  0  0  0
   -2.5821   -3.1659   -0.2542 H   0  0  0  0  0  0  0  0  0  0  0  0
   -4.5223   -3.9804    2.0681 H   0  0  0  0  0  0  0  0  0  0  0  0
   -3.2708   -5.0439    1.2327 H   0  0  0  0  0  0  0  0  0  0  0  0
   -1.4188   -3.4432    1.9218 H   0  0  0  0  0  0  0  0  0  0  0  0
   -2.6905   -2.4818    2.8644 H   0  0  0  0  0  0  0  0  0  0  0  0
   -0.2514    1.5588    1.8263 H   0  0  0  0  0  0  0  0  0  0  0  0
   -0.0192    2.4403    0.2856 H   0  0  0  0  0  0  0  0  0  0  0  0
    1.7474    0.4996    1.7687 H   0  0  0  0  0  0  0  0  0  0  0  0
    2.1402    1.9521    0.8326 H   0  0  0  0  0  0  0  0  0  0  0  0
    3.2872   -1.4062   -2.0181 H   0  0  0  0  0  0  0  0  0  0  0  0
    5.6535   -1.8706   -2.1523 H   0  0  0  0  0  0  0  0  0  0  0  0
  1  2  2  0
  2  3  1  0
  2  4  1  0
  4  5  2  0
  5  6  1  0
  6  7  1  0
  7  8  2  0
  8  9  1  0
  9 10  1  0
 10 11  1  0
 11 12  1  0
 12 13  1  0
 13 14  1  0
 13 15  1  0
 15 16  1  0
 16 17  1  0
 17 18  1  0
 18 19  1  0
 19 20  1  0
 20 21  2  0
 21 22  1  0
 21 23  1  0
 23 24  2  0
 24 25  1  0
 25 26  2  0
 26 27  1  0
 19 28  2  0
 28 29  1  0
 29 30  1  0
 30 31  1  0
 31 32  1  0
 32 33  1  0
 13 34  1  0
 34 35  1  0
  9 36  2  0
 36 37  1  0
 37 38  2  0
 38  4  1  0
 38  7  1  0
 35 10  1  0
 30 18  2  0
 33 31  1  0
 26 20  1  0
  3 39  1  0
  5 40  1  0
  8 41  1  0
 11 42  1  0
 11 43  1  0
 12 44  1  0
 12 45  1  0
 15 46  1  0
 15 47  1  0
 17 48  1  0
 17 49  1  0
 23 50  1  0
 24 51  1  0
 25 52  1  0
 31 53  1  0
 32 54  1  0
 32 55  1  0
 33 56  1  0
 33 57  1  0
 34 58  1  0
 34 59  1  0
 35 60  1  0
 35 61  1  0
 36 62  1  0
 37 63  1  0
M  END
>  <pEC50>  (9) 
5.509

$$$$
16
     RDKit          3D

 63 68  0  0  0  0  0  0  0  0999 V2000
    9.8753   -0.6268   -0.3617 O   0  0  0  0  0  0  0  0  0  0  0  0
    8.6992   -0.3390   -0.0433 C   0  0  0  0  0  0  0  0  0  0  0  0
    8.4324    0.2262    1.1640 O   0  0  0  0  0  0  0  0  0  0  0  0
    7.5557   -0.6114   -0.9874 C   0  0  0  0  0  0  0  0  0  0  0  0
    7.9374   -1.1897   -2.1915 C   0  0  0  0  0  0  0  0  0  0  0  0
    6.3337   -1.3627   -3.0427 S   0  0  0  0  0  0  0  0  0  0  0  0
    5.3130   -0.6434   -1.7011 C   0  0  0  0  0  0  0  0  0  0  0  0
    3.9650   -0.4320   -1.6079 C   0  0  0  0  0  0  0  0  0  0  0  0
    3.4518    0.1481   -0.4387 C   0  0  0  0  0  0  0  0  0  0  0  0
    2.0833    0.3861   -0.2763 N   0  0  0  0  0  0  0  0  0  0  0  0
    1.1425   -0.1271   -1.2185 C   0  0  0  0  0  0  0  0  0  0  0  0
   -0.2193   -0.4259   -0.6411 C   0  0  0  0  0  0  0  0  0  0  0  0
   -0.7165    0.6458    0.2758 C   0  0  0  0  0  0  0  0  0  0  0  0
   -0.8542    0.1236    1.5407 F   0  0  0  0  0  0  0  0  0  0  0  0
   -2.0080    1.2687   -0.1512 C   0  0  0  0  0  0  0  0  0  0  0  0
   -3.0956    0.4716   -0.2729 O   0  0  0  0  0  0  0  0  0  0  0  0
   -3.5522   -0.2071    0.8132 C   0  0  0  0  0  0  0  0  0  0  0  0
   -4.7905   -0.9385    0.4882 C   0  0  0  0  0  0  0  0  0  0  0  0
   -6.0552   -0.3562    0.3394 C   0  0  0  0  0  0  0  0  0  0  0  0
   -6.3144    1.0649    0.4622 C   0  0  0  0  0  0  0  0  0  0  0  0
   -6.2371    1.8798   -0.6412 C   0  0  0  0  0  0  0  0  0  0  0  0
   -5.8268    1.2524   -2.2247 Cl  0  0  0  0  0  0  0  0  0  0  0  0
   -6.4888    3.2475   -0.5173 C   0  0  0  0  0  0  0  0  0  0  0  0
   -6.8182    3.7980    0.7142 C   0  0  0  0  0  0  0  0  0  0  0  0
   -6.8926    2.9827    1.8028 C   0  0  0  0  0  0  0  0  0  0  0  0
   -6.6405    1.6097    1.6817 C   0  0  0  0  0  0  0  0  0  0  0  0
   -6.7491    0.6025    3.1125 Cl  0  0  0  0  0  0  0  0  0  0  0  0
   -6.9082   -1.3612    0.0749 N   0  0  0  0  0  0  0  0  0  0  0  0
   -6.2603   -2.4787    0.0547 O   0  0  0  0  0  0  0  0  0  0  0  0
   -4.9678   -2.2679    0.3008 C   0  0  0  0  0  0  0  0  0  0  0  0
   -3.9870   -3.3724    0.3358 C   0  0  0  0  0  0  0  0  0  0  0  0
   -3.6252   -4.0424   -0.9418 C   0  0  0  0  0  0  0  0  0  0  0  0
   -2.6271   -3.1173   -0.2619 C   0  0  0  0  0  0  0  0  0  0  0  0
    0.2853    1.7836    0.4108 C   0  0  0  0  0  0  0  0  0  0  0  0
    1.6159    1.1628    0.8478 C   0  0  0  0  0  0  0  0  0  0  0  0
    4.3681    0.4583    0.5281 C   0  0  0  0  0  0  0  0  0  0  0  0
    5.7242    0.2400    0.4213 C   0  0  0  0  0  0  0  0  0  0  0  0
    6.2720   -0.3474   -0.7547 C   0  0  0  0  0  0  0  0  0  0  0  0
    9.1101    0.8199    1.6516 H   0  0  0  0  0  0  0  0  0  0  0  0
    8.8525   -1.5083   -2.6539 H   0  0  0  0  0  0  0  0  0  0  0  0
    3.3100   -0.7029   -2.4145 H   0  0  0  0  0  0  0  0  0  0  0  0
    1.0613    0.4794   -2.1439 H   0  0  0  0  0  0  0  0  0  0  0  0
    1.5334   -1.1334   -1.5569 H   0  0  0  0  0  0  0  0  0  0  0  0
   -0.2400   -1.4358   -0.1809 H   0  0  0  0  0  0  0  0  0  0  0  0
   -0.9239   -0.4754   -1.5161 H   0  0  0  0  0  0  0  0  0  0  0  0
   -2.2527    2.1666    0.4813 H   0  0  0  0  0  0  0  0  0  0  0  0
   -1.7918    1.7198   -1.1727 H   0  0  0  0  0  0  0  0  0  0  0  0
   -3.7853    0.5012    1.6413 H   0  0  0  0  0  0  0  0  0  0  0  0
   -2.7866   -0.9241    1.2254 H   0  0  0  0  0  0  0  0  0  0  0  0
   -6.4200    3.8536   -1.3972 H   0  0  0  0  0  0  0  0  0  0  0  0
   -7.0096    4.8606    0.7889 H   0  0  0  0  0  0  0  0  0  0  0  0
   -7.1476    3.3685    2.7907 H   0  0  0  0  0  0  0  0  0  0  0  0
   -4.0738   -4.0603    1.2132 H   0  0  0  0  0  0  0  0  0  0  0  0
   -4.0801   -3.7103   -1.9008 H   0  0  0  0  0  0  0  0  0  0  0  0
   -3.2799   -5.1105   -0.9446 H   0  0  0  0  0  0  0  0  0  0  0  0
   -2.5054   -2.1341   -0.7882 H   0  0  0  0  0  0  0  0  0  0  0  0
   -1.7982   -3.5311    0.3106 H   0  0  0  0  0  0  0  0  0  0  0  0
    0.4662    2.2960   -0.5554 H   0  0  0  0  0  0  0  0  0  0  0  0
   -0.0548    2.4623    1.2183 H   0  0  0  0  0  0  0  0  0  0  0  0
    2.3243    2.0014    1.0905 H   0  0  0  0  0  0  0  0  0  0  0  0
    1.4795    0.4831    1.6979 H   0  0  0  0  0  0  0  0  0  0  0  0
    3.9593    0.9053    1.4364 H   0  0  0  0  0  0  0  0  0  0  0  0
    6.3075    0.5375    1.2632 H   0  0  0  0  0  0  0  0  0  0  0  0
  1  2  2  0
  2  3  1  0
  2  4  1  0
  4  5  2  0
  5  6  1  0
  6  7  1  0
  7  8  2  0
  8  9  1  0
  9 10  1  0
 10 11  1  0
 11 12  1  0
 12 13  1  0
 13 14  1  0
 13 15  1  0
 15 16  1  0
 16 17  1  0
 17 18  1  0
 18 19  1  0
 19 20  1  0
 20 21  2  0
 21 22  1  0
 21 23  1  0
 23 24  2  0
 24 25  1  0
 25 26  2  0
 26 27  1  0
 19 28  2  0
 28 29  1  0
 29 30  1  0
 30 31  1  0
 31 32  1  0
 32 33  1  0
 13 34  1  0
 34 35  1  0
  9 36  2  0
 36 37  1  0
 37 38  2  0
 38  4  1  0
 38  7  1  0
 35 10  1  0
 30 18  2  0
 33 31  1  0
 26 20  1  0
  3 39  1  0
  5 40  1  0
  8 41  1  0
 11 42  1  0
 11 43  1  0
 12 44  1  0
 12 45  1  0
 15 46  1  0
 15 47  1  0
 17 48  1  0
 17 49  1  0
 23 50  1  0
 24 51  1  0
 25 52  1  0
 31 53  1  0
 32 54  1  0
 32 55  1  0
 33 56  1  0
 33 57  1  0
 34 58  1  0
 34 59  1  0
 35 60  1  0
 35 61  1  0
 36 62  1  0
 37 63  1  0
M  END
>  <pEC50>  (10) 
5.539

$$$$
17
     RDKit          3D

 70 75  0  0  0  0  0  0  0  0999 V2000
    4.6698   -3.2341   -4.0517 C   0  0  0  0  0  0  0  0  0  0  0  0
    5.3923   -3.0430   -2.7363 C   0  0  0  0  0  0  0  0  0  0  0  0
    5.9082   -1.7087   -2.5670 N   0  0  0  0  0  0  0  0  0  0  0  0
    7.1176   -1.2966   -2.9550 C   0  0  0  0  0  0  0  0  0  0  0  0
    8.1930   -2.0453   -3.6337 C   0  0  0  0  0  0  0  0  0  0  0  0
    8.0735   -3.2520   -3.9472 O   0  0  0  0  0  0  0  0  0  0  0  0
    9.3857   -1.4052   -3.9431 O   0  0  0  0  0  0  0  0  0  0  0  0
    7.1893    0.0489   -2.5879 C   0  0  0  0  0  0  0  0  0  0  0  0
    5.9970    0.3921   -1.9844 C   0  0  0  0  0  0  0  0  0  0  0  0
    5.4849    1.5462   -1.4269 C   0  0  0  0  0  0  0  0  0  0  0  0
    4.2013    1.6066   -0.8675 C   0  0  0  0  0  0  0  0  0  0  0  0
    3.4073    0.4841   -0.8646 C   0  0  0  0  0  0  0  0  0  0  0  0
    2.0941    0.5106   -0.2826 N   0  0  0  0  0  0  0  0  0  0  0  0
    1.6659    1.5011    0.6482 C   0  0  0  0  0  0  0  0  0  0  0  0
    0.3490    2.0653    0.1363 C   0  0  0  0  0  0  0  0  0  0  0  0
   -0.6717    0.9454    0.1309 C   0  0  0  0  0  0  0  0  0  0  0  0
   -0.7984    0.5824    1.4820 F   0  0  0  0  0  0  0  0  0  0  0  0
   -1.9773    1.5673   -0.2761 C   0  0  0  0  0  0  0  0  0  0  0  0
   -3.0181    0.7024   -0.3480 O   0  0  0  0  0  0  0  0  0  0  0  0
   -3.3805    0.0135    0.7703 C   0  0  0  0  0  0  0  0  0  0  0  0
   -4.5608   -0.8192    0.4049 C   0  0  0  0  0  0  0  0  0  0  0  0
   -5.8546   -0.3450    0.2685 C   0  0  0  0  0  0  0  0  0  0  0  0
   -6.2958    1.0293    0.4642 C   0  0  0  0  0  0  0  0  0  0  0  0
   -6.7030    1.4672    1.7057 C   0  0  0  0  0  0  0  0  0  0  0  0
   -6.6954    0.3679    3.0752 Cl  0  0  0  0  0  0  0  0  0  0  0  0
   -7.1174    2.7606    1.8886 C   0  0  0  0  0  0  0  0  0  0  0  0
   -7.1511    3.6932    0.8475 C   0  0  0  0  0  0  0  0  0  0  0  0
   -6.7435    3.2469   -0.3860 C   0  0  0  0  0  0  0  0  0  0  0  0
   -6.3246    1.9426   -0.5744 C   0  0  0  0  0  0  0  0  0  0  0  0
   -5.8017    1.3588   -2.1455 Cl  0  0  0  0  0  0  0  0  0  0  0  0
   -6.5766   -1.4404   -0.0738 N   0  0  0  0  0  0  0  0  0  0  0  0
   -5.8201   -2.4680   -0.1406 O   0  0  0  0  0  0  0  0  0  0  0  0
   -4.5863   -2.1553    0.1391 C   0  0  0  0  0  0  0  0  0  0  0  0
   -3.4552   -3.0966    0.1551 C   0  0  0  0  0  0  0  0  0  0  0  0
   -2.6523   -3.3649   -1.0541 C   0  0  0  0  0  0  0  0  0  0  0  0
   -3.6221   -4.4254   -0.5187 C   0  0  0  0  0  0  0  0  0  0  0  0
   -0.2491   -0.2435   -0.6309 C   0  0  0  0  0  0  0  0  0  0  0  0
    1.1996   -0.5314   -0.6971 C   0  0  0  0  0  0  0  0  0  0  0  0
    3.9202   -0.6673   -1.4215 C   0  0  0  0  0  0  0  0  0  0  0  0
    5.1990   -0.7288   -1.9793 C   0  0  0  0  0  0  0  0  0  0  0  0
    4.4474   -2.2811   -4.5741 H   0  0  0  0  0  0  0  0  0  0  0  0
    3.7221   -3.7766   -3.8868 H   0  0  0  0  0  0  0  0  0  0  0  0
    5.3156   -3.8934   -4.6856 H   0  0  0  0  0  0  0  0  0  0  0  0
    6.2406   -3.7504   -2.6401 H   0  0  0  0  0  0  0  0  0  0  0  0
    4.6676   -3.2653   -1.9146 H   0  0  0  0  0  0  0  0  0  0  0  0
   10.2502   -1.9657   -3.9215 H   0  0  0  0  0  0  0  0  0  0  0  0
    8.0422    0.7092   -2.7526 H   0  0  0  0  0  0  0  0  0  0  0  0
    6.1072    2.4274   -1.4288 H   0  0  0  0  0  0  0  0  0  0  0  0
    3.8291    2.5268   -0.4419 H   0  0  0  0  0  0  0  0  0  0  0  0
    2.3786    2.2801    0.8987 H   0  0  0  0  0  0  0  0  0  0  0  0
    1.3732    0.9435    1.5936 H   0  0  0  0  0  0  0  0  0  0  0  0
   -0.0482    2.8645    0.7615 H   0  0  0  0  0  0  0  0  0  0  0  0
    0.4928    2.3656   -0.9183 H   0  0  0  0  0  0  0  0  0  0  0  0
   -2.2067    2.3239    0.5355 H   0  0  0  0  0  0  0  0  0  0  0  0
   -1.8586    2.0875   -1.2540 H   0  0  0  0  0  0  0  0  0  0  0  0
   -3.6739    0.7221    1.5738 H   0  0  0  0  0  0  0  0  0  0  0  0
   -2.6303   -0.6745    1.1630 H   0  0  0  0  0  0  0  0  0  0  0  0
   -7.4288    3.0650    2.8773 H   0  0  0  0  0  0  0  0  0  0  0  0
   -7.4883    4.7092    1.0441 H   0  0  0  0  0  0  0  0  0  0  0  0
   -6.7571    3.9397   -1.2105 H   0  0  0  0  0  0  0  0  0  0  0  0
   -2.8875   -3.1747    1.1187 H   0  0  0  0  0  0  0  0  0  0  0  0
   -2.9417   -2.9933   -2.0509 H   0  0  0  0  0  0  0  0  0  0  0  0
   -1.5647   -3.5487   -0.9489 H   0  0  0  0  0  0  0  0  0  0  0  0
   -4.5779   -4.5820   -1.0667 H   0  0  0  0  0  0  0  0  0  0  0  0
   -3.1166   -5.3280   -0.1070 H   0  0  0  0  0  0  0  0  0  0  0  0
   -0.6242   -0.1197   -1.6915 H   0  0  0  0  0  0  0  0  0  0  0  0
   -0.8012   -1.1668   -0.2839 H   0  0  0  0  0  0  0  0  0  0  0  0
    1.4171   -1.4104   -0.0213 H   0  0  0  0  0  0  0  0  0  0  0  0
    1.4790   -0.9163   -1.7227 H   0  0  0  0  0  0  0  0  0  0  0  0
    3.3507   -1.5639   -1.4412 H   0  0  0  0  0  0  0  0  0  0  0  0
  1  2  1  0
  2  3  1  0
  3  4  1  0
  4  5  1  0
  5  6  2  0
  5  7  1  0
  4  8  2  0
  8  9  1  0
  9 10  2  0
 10 11  1  0
 11 12  2  0
 12 13  1  0
 13 14  1  0
 14 15  1  0
 15 16  1  0
 16 17  1  0
 16 18  1  0
 18 19  1  0
 19 20  1  0
 20 21  1  0
 21 22  1  0
 22 23  1  0
 23 24  2  0
 24 25  1  0
 24 26  1  0
 26 27  2  0
 27 28  1  0
 28 29  2  0
 29 30  1  0
 22 31  2  0
 31 32  1  0
 32 33  1  0
 33 34  1  0
 34 35  1  0
 35 36  1  0
 16 37  1  0
 37 38  1  0
 12 39  1  0
 39 40  2  0
 40  3  1  0
 40  9  1  0
 38 13  1  0
 33 21  2  0
 36 34  1  0
 29 23  1  0
  1 41  1  0
  1 42  1  0
  1 43  1  0
  2 44  1  0
  2 45  1  0
  7 46  1  0
  8 47  1  0
 10 48  1  0
 11 49  1  0
 14 50  1  0
 14 51  1  0
 15 52  1  0
 15 53  1  0
 18 54  1  0
 18 55  1  0
 20 56  1  0
 20 57  1  0
 26 58  1  0
 27 59  1  0
 28 60  1  0
 34 61  1  0
 35 62  1  0
 35 63  1  0
 36 64  1  0
 36 65  1  0
 37 66  1  0
 37 67  1  0
 38 68  1  0
 38 69  1  0
 39 70  1  0
M  END
>  <pEC50>  (11) 
6.495

$$$$
18
     RDKit          3D

 63 68  0  0  0  0  0  0  0  0999 V2000
    8.4703   -4.5157    2.4221 O   0  0  0  0  0  0  0  0  0  0  0  0
    7.2752   -4.7373    2.1302 C   0  0  0  0  0  0  0  0  0  0  0  0
    6.8443   -6.0535    2.2671 O   0  0  0  0  0  0  0  0  0  0  0  0
    6.4027   -3.6770    1.6772 C   0  0  0  0  0  0  0  0  0  0  0  0
    6.5609   -2.3516    1.4749 C   0  0  0  0  0  0  0  0  0  0  0  0
    5.5082   -1.6181    1.0388 C   0  0  0  0  0  0  0  0  0  0  0  0
    5.4927   -0.2237    0.7711 C   0  0  0  0  0  0  0  0  0  0  0  0
    4.3419    0.3643    0.3311 C   0  0  0  0  0  0  0  0  0  0  0  0
    3.1502   -0.2794    0.1125 C   0  0  0  0  0  0  0  0  0  0  0  0
    1.9779    0.3751   -0.3356 N   0  0  0  0  0  0  0  0  0  0  0  0
    0.9168   -0.4409   -0.8694 C   0  0  0  0  0  0  0  0  0  0  0  0
   -0.2822    0.4047   -1.2636 C   0  0  0  0  0  0  0  0  0  0  0  0
   -0.5834    1.3530   -0.1044 C   0  0  0  0  0  0  0  0  0  0  0  0
   -0.4824    0.6751    1.0609 F   0  0  0  0  0  0  0  0  0  0  0  0
   -1.9216    1.9546   -0.3904 C   0  0  0  0  0  0  0  0  0  0  0  0
   -2.9649    1.0720   -0.5285 O   0  0  0  0  0  0  0  0  0  0  0  0
   -3.2495    0.2640    0.5452 C   0  0  0  0  0  0  0  0  0  0  0  0
   -4.3898   -0.6499    0.2603 C   0  0  0  0  0  0  0  0  0  0  0  0
   -5.7108   -0.2919    0.2589 C   0  0  0  0  0  0  0  0  0  0  0  0
   -6.3543    0.9780    0.5325 C   0  0  0  0  0  0  0  0  0  0  0  0
   -6.7853    1.3597    1.7900 C   0  0  0  0  0  0  0  0  0  0  0  0
   -6.5416    0.2744    3.1388 Cl  0  0  0  0  0  0  0  0  0  0  0  0
   -7.4030    2.5678    2.0242 C   0  0  0  0  0  0  0  0  0  0  0  0
   -7.6175    3.4594    0.9902 C   0  0  0  0  0  0  0  0  0  0  0  0
   -7.1930    3.0954   -0.2657 C   0  0  0  0  0  0  0  0  0  0  0  0
   -6.5746    1.8783   -0.4888 C   0  0  0  0  0  0  0  0  0  0  0  0
   -6.0558    1.4663   -2.1166 Cl  0  0  0  0  0  0  0  0  0  0  0  0
   -6.3789   -1.4400   -0.0705 N   0  0  0  0  0  0  0  0  0  0  0  0
   -5.5162   -2.4055   -0.2496 O   0  0  0  0  0  0  0  0  0  0  0  0
   -4.3019   -1.9838   -0.0625 C   0  0  0  0  0  0  0  0  0  0  0  0
   -3.0687   -2.7928   -0.1775 C   0  0  0  0  0  0  0  0  0  0  0  0
   -2.6936   -3.5587    1.1246 C   0  0  0  0  0  0  0  0  0  0  0  0
   -3.1781   -4.2995   -0.0845 C   0  0  0  0  0  0  0  0  0  0  0  0
    0.5167    2.3899   -0.1558 C   0  0  0  0  0  0  0  0  0  0  0  0
    1.8616    1.7894   -0.2544 C   0  0  0  0  0  0  0  0  0  0  0  0
    3.1597   -1.6502    0.3749 C   0  0  0  0  0  0  0  0  0  0  0  0
    4.3359   -2.2466    0.8230 C   0  0  0  0  0  0  0  0  0  0  0  0
    4.6458   -3.9383    1.2267 S   0  0  0  0  0  0  0  0  0  0  0  0
    7.1337   -6.5910    3.0884 H   0  0  0  0  0  0  0  0  0  0  0  0
    7.5904   -1.9191    1.6845 H   0  0  0  0  0  0  0  0  0  0  0  0
    6.3631    0.3960    0.9042 H   0  0  0  0  0  0  0  0  0  0  0  0
    4.3259    1.4460    0.1130 H   0  0  0  0  0  0  0  0  0  0  0  0
    1.2909   -1.0668   -1.6814 H   0  0  0  0  0  0  0  0  0  0  0  0
    0.5944   -1.1124   -0.0484 H   0  0  0  0  0  0  0  0  0  0  0  0
    0.0067    0.9527   -2.1827 H   0  0  0  0  0  0  0  0  0  0  0  0
   -1.1597   -0.2018   -1.4587 H   0  0  0  0  0  0  0  0  0  0  0  0
   -2.1251    2.6694    0.4608 H   0  0  0  0  0  0  0  0  0  0  0  0
   -1.8428    2.6192   -1.3014 H   0  0  0  0  0  0  0  0  0  0  0  0
   -3.4528    0.8832    1.4387 H   0  0  0  0  0  0  0  0  0  0  0  0
   -2.3739   -0.4106    0.7282 H   0  0  0  0  0  0  0  0  0  0  0  0
   -7.7492    2.8849    3.0033 H   0  0  0  0  0  0  0  0  0  0  0  0
   -8.1114    4.4262    1.1674 H   0  0  0  0  0  0  0  0  0  0  0  0
   -7.3595    3.7971   -1.0769 H   0  0  0  0  0  0  0  0  0  0  0  0
   -2.1890   -2.3577   -0.6998 H   0  0  0  0  0  0  0  0  0  0  0  0
   -3.3872   -3.4501    1.9853 H   0  0  0  0  0  0  0  0  0  0  0  0
   -1.6382   -3.5671    1.3989 H   0  0  0  0  0  0  0  0  0  0  0  0
   -2.4526   -4.9217   -0.6436 H   0  0  0  0  0  0  0  0  0  0  0  0
   -4.2063   -4.7046   -0.0001 H   0  0  0  0  0  0  0  0  0  0  0  0
    0.3159    3.0031   -1.0801 H   0  0  0  0  0  0  0  0  0  0  0  0
    0.4679    3.0642    0.7394 H   0  0  0  0  0  0  0  0  0  0  0  0
    2.4160    2.2724   -1.1271 H   0  0  0  0  0  0  0  0  0  0  0  0
    2.5203    2.1135    0.6219 H   0  0  0  0  0  0  0  0  0  0  0  0
    2.2886   -2.2418    0.2389 H   0  0  0  0  0  0  0  0  0  0  0  0
  1  2  2  0
  2  3  1  0
  2  4  1  0
  4  5  2  0
  5  6  1  0
  6  7  2  0
  7  8  1  0
  8  9  2  0
  9 10  1  0
 10 11  1  0
 11 12  1  0
 12 13  1  0
 13 14  1  0
 13 15  1  0
 15 16  1  0
 16 17  1  0
 17 18  1  0
 18 19  1  0
 19 20  1  0
 20 21  2  0
 21 22  1  0
 21 23  1  0
 23 24  2  0
 24 25  1  0
 25 26  2  0
 26 27  1  0
 19 28  2  0
 28 29  1  0
 29 30  1  0
 30 31  1  0
 31 32  1  0
 32 33  1  0
 13 34  1  0
 34 35  1  0
  9 36  1  0
 36 37  2  0
 37 38  1  0
 38  4  1  0
 37  6  1  0
 35 10  1  0
 30 18  2  0
 33 31  1  0
 26 20  1  0
  3 39  1  0
  5 40  1  0
  7 41  1  0
  8 42  1  0
 11 43  1  0
 11 44  1  0
 12 45  1  0
 12 46  1  0
 15 47  1  0
 15 48  1  0
 17 49  1  0
 17 50  1  0
 23 51  1  0
 24 52  1  0
 25 53  1  0
 31 54  1  0
 32 55  1  0
 32 56  1  0
 33 57  1  0
 33 58  1  0
 34 59  1  0
 34 60  1  0
 35 61  1  0
 35 62  1  0
 36 63  1  0
M  END
>  <pEC50>  (12) 
5.71

$$$$
19
     RDKit          3D

 67 72  0  0  0  0  0  0  0  0999 V2000
    6.0507   -2.1959   -3.2366 C   0  0  0  0  0  0  0  0  0  0  0  0
    6.3150   -1.5376   -1.9805 N   0  0  0  0  0  0  0  0  0  0  0  0
    7.5600   -1.4263   -1.4528 C   0  0  0  0  0  0  0  0  0  0  0  0
    7.4764   -0.7517   -0.2577 C   0  0  0  0  0  0  0  0  0  0  0  0
    8.5332   -0.3899    0.6712 C   0  0  0  0  0  0  0  0  0  0  0  0
    8.2978    0.2351    1.7367 O   0  0  0  0  0  0  0  0  0  0  0  0
    9.8660   -0.7165    0.4307 O   0  0  0  0  0  0  0  0  0  0  0  0
    6.1381   -0.4661   -0.0938 C   0  0  0  0  0  0  0  0  0  0  0  0
    5.4203    0.1886    0.8993 C   0  0  0  0  0  0  0  0  0  0  0  0
    4.0531    0.3428    0.8185 C   0  0  0  0  0  0  0  0  0  0  0  0
    3.3351   -0.1459   -0.2524 C   0  0  0  0  0  0  0  0  0  0  0  0
    1.9075    0.0281   -0.3009 N   0  0  0  0  0  0  0  0  0  0  0  0
    1.2865    0.5582    0.8884 C   0  0  0  0  0  0  0  0  0  0  0  0
   -0.2282    0.2855    0.7174 C   0  0  0  0  0  0  0  0  0  0  0  0
   -0.6029    1.0069   -0.5376 C   0  0  0  0  0  0  0  0  0  0  0  0
    0.2645    2.1309   -0.6098 F   0  0  0  0  0  0  0  0  0  0  0  0
   -1.9924    1.4916   -0.6632 C   0  0  0  0  0  0  0  0  0  0  0  0
   -3.0425    0.6781   -0.6422 O   0  0  0  0  0  0  0  0  0  0  0  0
   -3.3286   -0.0665    0.4353 C   0  0  0  0  0  0  0  0  0  0  0  0
   -4.5861   -0.8744    0.2678 C   0  0  0  0  0  0  0  0  0  0  0  0
   -5.8413   -0.3231    0.3640 C   0  0  0  0  0  0  0  0  0  0  0  0
   -6.2245    1.0582    0.6319 C   0  0  0  0  0  0  0  0  0  0  0  0
   -6.4130    1.4770    1.9328 C   0  0  0  0  0  0  0  0  0  0  0  0
   -6.2389    0.6002    2.9487 F   0  0  0  0  0  0  0  0  0  0  0  0
   -6.7810    2.7968    2.2011 C   0  0  0  0  0  0  0  0  0  0  0  0
   -6.9678    3.7204    1.1936 C   0  0  0  0  0  0  0  0  0  0  0  0
   -6.7752    3.2873   -0.1093 C   0  0  0  0  0  0  0  0  0  0  0  0
   -6.4109    1.9813   -0.3794 C   0  0  0  0  0  0  0  0  0  0  0  0
   -6.1878    1.5146   -2.0523 Cl  0  0  0  0  0  0  0  0  0  0  0  0
   -6.6781   -1.3814    0.1488 N   0  0  0  0  0  0  0  0  0  0  0  0
   -5.9779   -2.4617   -0.0561 O   0  0  0  0  0  0  0  0  0  0  0  0
   -4.6947   -2.2191    0.0034 C   0  0  0  0  0  0  0  0  0  0  0  0
   -3.5324   -3.1298   -0.1643 C   0  0  0  0  0  0  0  0  0  0  0  0
   -2.9387   -3.3359   -1.5136 C   0  0  0  0  0  0  0  0  0  0  0  0
   -3.8438   -4.3936   -1.0156 C   0  0  0  0  0  0  0  0  0  0  0  0
   -0.1593    0.1328   -1.6907 C   0  0  0  0  0  0  0  0  0  0  0  0
    1.2388   -0.3289   -1.4982 C   0  0  0  0  0  0  0  0  0  0  0  0
    4.0369   -0.7966   -1.2419 C   0  0  0  0  0  0  0  0  0  0  0  0
    5.4120   -0.9498   -1.1571 C   0  0  0  0  0  0  0  0  0  0  0  0
    5.0755   -1.9011   -3.6692 H   0  0  0  0  0  0  0  0  0  0  0  0
    6.0805   -3.3034   -3.0145 H   0  0  0  0  0  0  0  0  0  0  0  0
    6.9021   -1.9936   -3.9133 H   0  0  0  0  0  0  0  0  0  0  0  0
    8.4757   -1.7984   -1.8833 H   0  0  0  0  0  0  0  0  0  0  0  0
   10.5673   -0.5677    1.1612 H   0  0  0  0  0  0  0  0  0  0  0  0
    5.9924    0.5716    1.7411 H   0  0  0  0  0  0  0  0  0  0  0  0
    3.5748    0.8714    1.6468 H   0  0  0  0  0  0  0  0  0  0  0  0
    1.5898    0.0332    1.7998 H   0  0  0  0  0  0  0  0  0  0  0  0
    1.3552    1.6646    0.9611 H   0  0  0  0  0  0  0  0  0  0  0  0
   -0.2535   -0.8245    0.4927 H   0  0  0  0  0  0  0  0  0  0  0  0
   -0.7717    0.5575    1.6159 H   0  0  0  0  0  0  0  0  0  0  0  0
   -2.0288    2.0655   -1.6565 H   0  0  0  0  0  0  0  0  0  0  0  0
   -2.1268    2.3221    0.1030 H   0  0  0  0  0  0  0  0  0  0  0  0
   -3.5069    0.5272    1.3803 H   0  0  0  0  0  0  0  0  0  0  0  0
   -2.5016   -0.7537    0.6929 H   0  0  0  0  0  0  0  0  0  0  0  0
   -6.9350    3.1467    3.2273 H   0  0  0  0  0  0  0  0  0  0  0  0
   -7.2550    4.7461    1.4196 H   0  0  0  0  0  0  0  0  0  0  0  0
   -6.9232    4.0162   -0.8978 H   0  0  0  0  0  0  0  0  0  0  0  0
   -2.8957   -3.3388    0.7244 H   0  0  0  0  0  0  0  0  0  0  0  0
   -3.2795   -2.6677   -2.3391 H   0  0  0  0  0  0  0  0  0  0  0  0
   -1.8278   -3.4790   -1.5229 H   0  0  0  0  0  0  0  0  0  0  0  0
   -4.8361   -4.4479   -1.4813 H   0  0  0  0  0  0  0  0  0  0  0  0
   -3.3514   -5.3325   -0.7003 H   0  0  0  0  0  0  0  0  0  0  0  0
   -0.8763   -0.6993   -1.8490 H   0  0  0  0  0  0  0  0  0  0  0  0
   -0.1806    0.7913   -2.6038 H   0  0  0  0  0  0  0  0  0  0  0  0
    1.8738   -0.1097   -2.4218 H   0  0  0  0  0  0  0  0  0  0  0  0
    1.2015   -1.4638   -1.5201 H   0  0  0  0  0  0  0  0  0  0  0  0
    3.5233   -1.2039   -2.1051 H   0  0  0  0  0  0  0  0  0  0  0  0
  1  2  1  0
  2  3  1  0
  3  4  2  0
  4  5  1  0
  5  6  2  0
  5  7  1  0
  4  8  1  0
  8  9  2  0
  9 10  1  0
 10 11  2  0
 11 12  1  0
 12 13  1  0
 13 14  1  0
 14 15  1  0
 15 16  1  0
 15 17  1  0
 17 18  1  0
 18 19  1  0
 19 20  1  0
 20 21  1  0
 21 22  1  0
 22 23  2  0
 23 24  1  0
 23 25  1  0
 25 26  2  0
 26 27  1  0
 27 28  2  0
 28 29  1  0
 21 30  2  0
 30 31  1  0
 31 32  1  0
 32 33  1  0
 33 34  1  0
 34 35  1  0
 15 36  1  0
 36 37  1  0
 11 38  1  0
 38 39  2  0
 39  2  1  0
 39  8  1  0
 37 12  1  0
 32 20  2  0
 35 33  1  0
 28 22  1  0
  1 40  1  0
  1 41  1  0
  1 42  1  0
  3 43  1  0
  7 44  1  0
  9 45  1  0
 10 46  1  0
 13 47  1  0
 13 48  1  0
 14 49  1  0
 14 50  1  0
 17 51  1  0
 17 52  1  0
 19 53  1  0
 19 54  1  0
 25 55  1  0
 26 56  1  0
 27 57  1  0
 33 58  1  0
 34 59  1  0
 34 60  1  0
 35 61  1  0
 35 62  1  0
 36 63  1  0
 36 64  1  0
 37 65  1  0
 37 66  1  0
 38 67  1  0
M  END
>  <pEC50>  (13) 
6.377

$$$$
20
     RDKit          3D

 67 72  0  0  0  0  0  0  0  0999 V2000
    6.6100   -1.9637   -2.5562 C   0  0  0  0  0  0  0  0  0  0  0  0
    6.6276   -1.4267   -1.1904 N   0  0  0  0  0  0  0  0  0  0  0  0
    7.6793   -1.4863   -0.3809 C   0  0  0  0  0  0  0  0  0  0  0  0
    7.3429   -0.8835    0.7940 C   0  0  0  0  0  0  0  0  0  0  0  0
    8.2077   -0.7299    1.9564 C   0  0  0  0  0  0  0  0  0  0  0  0
    9.3850   -1.1649    1.9793 O   0  0  0  0  0  0  0  0  0  0  0  0
    7.7544   -0.0801    3.1130 O   0  0  0  0  0  0  0  0  0  0  0  0
    6.0341   -0.4490    0.6706 C   0  0  0  0  0  0  0  0  0  0  0  0
    5.2024    0.2107    1.5228 C   0  0  0  0  0  0  0  0  0  0  0  0
    3.9459    0.5104    1.1050 C   0  0  0  0  0  0  0  0  0  0  0  0
    3.4321    0.1860   -0.1574 C   0  0  0  0  0  0  0  0  0  0  0  0
    2.1157    0.5716   -0.4980 N   0  0  0  0  0  0  0  0  0  0  0  0
    1.3394   -0.1957   -1.4085 C   0  0  0  0  0  0  0  0  0  0  0  0
   -0.1520   -0.0720   -1.2517 C   0  0  0  0  0  0  0  0  0  0  0  0
   -0.6039    1.1008   -0.4462 C   0  0  0  0  0  0  0  0  0  0  0  0
   -0.5181    0.8232    0.8863 F   0  0  0  0  0  0  0  0  0  0  0  0
   -1.9514    1.6443   -0.7842 C   0  0  0  0  0  0  0  0  0  0  0  0
   -3.0102    0.7984   -0.6893 O   0  0  0  0  0  0  0  0  0  0  0  0
   -3.2278    0.1605    0.4995 C   0  0  0  0  0  0  0  0  0  0  0  0
   -4.4370   -0.6940    0.4404 C   0  0  0  0  0  0  0  0  0  0  0  0
   -5.7356   -0.3014    0.6285 C   0  0  0  0  0  0  0  0  0  0  0  0
   -6.3212    0.9741    0.9988 C   0  0  0  0  0  0  0  0  0  0  0  0
   -6.2631    2.1256    0.2654 C   0  0  0  0  0  0  0  0  0  0  0  0
   -6.8629    3.3049    0.6545 C   0  0  0  0  0  0  0  0  0  0  0  0
   -7.5716    3.3465    1.8581 C   0  0  0  0  0  0  0  0  0  0  0  0
   -7.6440    2.2001    2.6144 C   0  0  0  0  0  0  0  0  0  0  0  0
   -7.0350    1.0298    2.2040 C   0  0  0  0  0  0  0  0  0  0  0  0
   -7.0929   -0.1060    2.9451 F   0  0  0  0  0  0  0  0  0  0  0  0
   -6.4570   -1.4610    0.4389 N   0  0  0  0  0  0  0  0  0  0  0  0
   -5.6677   -2.4360    0.1681 O   0  0  0  0  0  0  0  0  0  0  0  0
   -4.4227   -2.0661    0.1473 C   0  0  0  0  0  0  0  0  0  0  0  0
   -3.1943   -2.8501   -0.1164 C   0  0  0  0  0  0  0  0  0  0  0  0
   -2.6927   -2.9228   -1.5479 C   0  0  0  0  0  0  0  0  0  0  0  0
   -3.2744   -4.1373   -0.9139 C   0  0  0  0  0  0  0  0  0  0  0  0
    0.4051    2.2311   -0.6923 C   0  0  0  0  0  0  0  0  0  0  0  0
    1.6296    1.8090    0.1259 C   0  0  0  0  0  0  0  0  0  0  0  0
    4.2981   -0.4839   -1.0004 C   0  0  0  0  0  0  0  0  0  0  0  0
    5.5954   -0.8035   -0.5974 C   0  0  0  0  0  0  0  0  0  0  0  0
    6.6862   -1.1252   -3.3096 H   0  0  0  0  0  0  0  0  0  0  0  0
    7.4407   -2.6639   -2.7298 H   0  0  0  0  0  0  0  0  0  0  0  0
    5.6389   -2.4521   -2.7699 H   0  0  0  0  0  0  0  0  0  0  0  0
    8.6336   -1.9326   -0.6149 H   0  0  0  0  0  0  0  0  0  0  0  0
    8.4281    0.4007    3.7296 H   0  0  0  0  0  0  0  0  0  0  0  0
    5.5483    0.4884    2.5162 H   0  0  0  0  0  0  0  0  0  0  0  0
    3.2549    1.0376    1.7626 H   0  0  0  0  0  0  0  0  0  0  0  0
    1.6242    0.0294   -2.4671 H   0  0  0  0  0  0  0  0  0  0  0  0
    1.5742   -1.2920   -1.2482 H   0  0  0  0  0  0  0  0  0  0  0  0
   -0.5696   -0.9890   -0.7478 H   0  0  0  0  0  0  0  0  0  0  0  0
   -0.6069   -0.0285   -2.2605 H   0  0  0  0  0  0  0  0  0  0  0  0
   -1.8933    1.9831   -1.8512 H   0  0  0  0  0  0  0  0  0  0  0  0
   -2.1742    2.5772   -0.1830 H   0  0  0  0  0  0  0  0  0  0  0  0
   -3.4118    0.9096    1.3194 H   0  0  0  0  0  0  0  0  0  0  0  0
   -2.3439   -0.4422    0.8650 H   0  0  0  0  0  0  0  0  0  0  0  0
   -5.7257    2.1194   -0.6687 H   0  0  0  0  0  0  0  0  0  0  0  0
   -6.7858    4.1742    0.0341 H   0  0  0  0  0  0  0  0  0  0  0  0
   -8.0289    4.2826    2.1307 H   0  0  0  0  0  0  0  0  0  0  0  0
   -8.1928    2.2462    3.5451 H   0  0  0  0  0  0  0  0  0  0  0  0
   -2.4375   -2.8241    0.7001 H   0  0  0  0  0  0  0  0  0  0  0  0
   -3.3070   -2.4106   -2.3343 H   0  0  0  0  0  0  0  0  0  0  0  0
   -1.6091   -2.8857   -1.7642 H   0  0  0  0  0  0  0  0  0  0  0  0
   -2.5143   -4.9344   -0.6607 H   0  0  0  0  0  0  0  0  0  0  0  0
   -4.2250   -4.4837   -1.3405 H   0  0  0  0  0  0  0  0  0  0  0  0
    0.0182    3.1817   -0.3536 H   0  0  0  0  0  0  0  0  0  0  0  0
    0.7238    2.2796   -1.7308 H   0  0  0  0  0  0  0  0  0  0  0  0
    2.3753    2.6108    0.0663 H   0  0  0  0  0  0  0  0  0  0  0  0
    1.3215    1.5664    1.1511 H   0  0  0  0  0  0  0  0  0  0  0  0
    3.9374   -0.7498   -1.9766 H   0  0  0  0  0  0  0  0  0  0  0  0
  1  2  1  0
  2  3  1  0
  3  4  2  0
  4  5  1  0
  5  6  2  0
  5  7  1  0
  4  8  1  0
  8  9  2  0
  9 10  1  0
 10 11  2  0
 11 12  1  0
 12 13  1  0
 13 14  1  0
 14 15  1  0
 15 16  1  0
 15 17  1  0
 17 18  1  0
 18 19  1  0
 19 20  1  0
 20 21  1  0
 21 22  1  0
 22 23  2  0
 23 24  1  0
 24 25  2  0
 25 26  1  0
 26 27  2  0
 27 28  1  0
 21 29  2  0
 29 30  1  0
 30 31  1  0
 31 32  1  0
 32 33  1  0
 33 34  1  0
 15 35  1  0
 35 36  1  0
 11 37  1  0
 37 38  2  0
 38  2  1  0
 38  8  1  0
 36 12  1  0
 31 20  2  0
 34 32  1  0
 27 22  1  0
  1 39  1  0
  1 40  1  0
  1 41  1  0
  3 42  1  0
  7 43  1  0
  9 44  1  0
 10 45  1  0
 13 46  1  0
 13 47  1  0
 14 48  1  0
 14 49  1  0
 17 50  1  0
 17 51  1  0
 19 52  1  0
 19 53  1  0
 23 54  1  0
 24 55  1  0
 25 56  1  0
 26 57  1  0
 32 58  1  0
 33 59  1  0
 33 60  1  0
 34 61  1  0
 34 62  1  0
 35 63  1  0
 35 64  1  0
 36 65  1  0
 36 66  1  0
 37 67  1  0
M  END
>  <pEC50>  (14) 
5.963

$$$$
21
     RDKit          3D

 67 72  0  0  0  0  0  0  0  0999 V2000
    5.6340   -3.1893   -2.7230 C   0  0  0  0  0  0  0  0  0  0  0  0
    5.9796   -2.3431   -1.6049 N   0  0  0  0  0  0  0  0  0  0  0  0
    7.1766   -2.4357   -0.9647 C   0  0  0  0  0  0  0  0  0  0  0  0
    7.2214   -1.5098    0.0513 C   0  0  0  0  0  0  0  0  0  0  0  0
    8.3086   -1.2607    0.9915 C   0  0  0  0  0  0  0  0  0  0  0  0
    9.3835   -1.9012    0.9694 O   0  0  0  0  0  0  0  0  0  0  0  0
    8.1680   -0.2731    1.9646 O   0  0  0  0  0  0  0  0  0  0  0  0
    6.0074   -0.8625   -0.0072 C   0  0  0  0  0  0  0  0  0  0  0  0
    5.4552    0.1566    0.7398 C   0  0  0  0  0  0  0  0  0  0  0  0
    4.1920    0.6312    0.4673 C   0  0  0  0  0  0  0  0  0  0  0  0
    3.4191    0.1055   -0.5699 C   0  0  0  0  0  0  0  0  0  0  0  0
    2.1238    0.6398   -0.8024 N   0  0  0  0  0  0  0  0  0  0  0  0
    1.2657    0.0027   -1.7510 C   0  0  0  0  0  0  0  0  0  0  0  0
   -0.2074    0.1118   -1.4353 C   0  0  0  0  0  0  0  0  0  0  0  0
   -0.5431    1.1653   -0.4310 C   0  0  0  0  0  0  0  0  0  0  0  0
   -0.3781    0.6716    0.8318 F   0  0  0  0  0  0  0  0  0  0  0  0
   -1.9130    1.7577   -0.6472 C   0  0  0  0  0  0  0  0  0  0  0  0
   -2.9568    0.8748   -0.5882 O   0  0  0  0  0  0  0  0  0  0  0  0
   -3.1458    0.1865    0.5679 C   0  0  0  0  0  0  0  0  0  0  0  0
   -4.3598   -0.6842    0.4547 C   0  0  0  0  0  0  0  0  0  0  0  0
   -5.6616   -0.2591    0.5549 C   0  0  0  0  0  0  0  0  0  0  0  0
   -6.1824    1.0731    0.7960 C   0  0  0  0  0  0  0  0  0  0  0  0
   -5.9545    2.1508   -0.0254 C   0  0  0  0  0  0  0  0  0  0  0  0
   -6.4699    3.4071    0.2128 C   0  0  0  0  0  0  0  0  0  0  0  0
   -7.2642    3.6346    1.3285 C   0  0  0  0  0  0  0  0  0  0  0  0
   -7.5072    2.5647    2.1693 C   0  0  0  0  0  0  0  0  0  0  0  0
   -6.9813    1.3207    1.9096 C   0  0  0  0  0  0  0  0  0  0  0  0
   -7.3334    0.0135    3.0219 Cl  0  0  0  0  0  0  0  0  0  0  0  0
   -6.3852   -1.4115    0.3977 N   0  0  0  0  0  0  0  0  0  0  0  0
   -5.5892   -2.4154    0.2219 O   0  0  0  0  0  0  0  0  0  0  0  0
   -4.3368   -2.0451    0.2447 C   0  0  0  0  0  0  0  0  0  0  0  0
   -3.1346   -2.8858    0.0821 C   0  0  0  0  0  0  0  0  0  0  0  0
   -2.5777   -3.1272   -1.2868 C   0  0  0  0  0  0  0  0  0  0  0  0
   -3.3655   -4.2265   -0.6738 C   0  0  0  0  0  0  0  0  0  0  0  0
    0.4502    2.3288   -0.6645 C   0  0  0  0  0  0  0  0  0  0  0  0
    1.7474    1.8278   -0.0515 C   0  0  0  0  0  0  0  0  0  0  0  0
    3.9805   -0.9020   -1.2996 C   0  0  0  0  0  0  0  0  0  0  0  0
    5.2435   -1.3797   -1.0308 C   0  0  0  0  0  0  0  0  0  0  0  0
    5.4846   -4.2520   -2.4135 H   0  0  0  0  0  0  0  0  0  0  0  0
    6.5020   -3.1599   -3.4405 H   0  0  0  0  0  0  0  0  0  0  0  0
    4.7227   -2.8812   -3.2384 H   0  0  0  0  0  0  0  0  0  0  0  0
    8.0009   -3.1130   -1.1788 H   0  0  0  0  0  0  0  0  0  0  0  0
    8.5415   -0.4184    2.9124 H   0  0  0  0  0  0  0  0  0  0  0  0
    6.0325    0.5802    1.5483 H   0  0  0  0  0  0  0  0  0  0  0  0
    3.8039    1.4390    1.0907 H   0  0  0  0  0  0  0  0  0  0  0  0
    1.4833    0.4084   -2.7578 H   0  0  0  0  0  0  0  0  0  0  0  0
    1.4701   -1.1058   -1.7888 H   0  0  0  0  0  0  0  0  0  0  0  0
   -0.6399   -0.8432   -1.0554 H   0  0  0  0  0  0  0  0  0  0  0  0
   -0.7359    0.3438   -2.3800 H   0  0  0  0  0  0  0  0  0  0  0  0
   -1.9254    2.2266   -1.6775 H   0  0  0  0  0  0  0  0  0  0  0  0
   -2.0782    2.6288    0.0466 H   0  0  0  0  0  0  0  0  0  0  0  0
   -3.2721    0.8487    1.4663 H   0  0  0  0  0  0  0  0  0  0  0  0
   -2.2756   -0.4786    0.8617 H   0  0  0  0  0  0  0  0  0  0  0  0
   -5.3557    2.0430   -0.9148 H   0  0  0  0  0  0  0  0  0  0  0  0
   -6.2553    4.2272   -0.4738 H   0  0  0  0  0  0  0  0  0  0  0  0
   -7.6717    4.6213    1.5204 H   0  0  0  0  0  0  0  0  0  0  0  0
   -8.1323    2.7475    3.0476 H   0  0  0  0  0  0  0  0  0  0  0  0
   -2.3828   -2.9452    0.9148 H   0  0  0  0  0  0  0  0  0  0  0  0
   -3.0122   -2.6382   -2.1855 H   0  0  0  0  0  0  0  0  0  0  0  0
   -1.4889   -3.3007   -1.3824 H   0  0  0  0  0  0  0  0  0  0  0  0
   -2.9104   -5.1198   -0.2293 H   0  0  0  0  0  0  0  0  0  0  0  0
   -4.3864   -4.4039   -1.0651 H   0  0  0  0  0  0  0  0  0  0  0  0
    0.1329    3.2244   -0.0950 H   0  0  0  0  0  0  0  0  0  0  0  0
    0.5062    2.4685   -1.7437 H   0  0  0  0  0  0  0  0  0  0  0  0
    2.5412    2.5974   -0.0766 H   0  0  0  0  0  0  0  0  0  0  0  0
    1.4998    1.5018    0.9725 H   0  0  0  0  0  0  0  0  0  0  0  0
    3.4352   -1.3428   -2.1125 H   0  0  0  0  0  0  0  0  0  0  0  0
  1  2  1  0
  2  3  1  0
  3  4  2  0
  4  5  1  0
  5  6  2  0
  5  7  1  0
  4  8  1  0
  8  9  2  0
  9 10  1  0
 10 11  2  0
 11 12  1  0
 12 13  1  0
 13 14  1  0
 14 15  1  0
 15 16  1  0
 15 17  1  0
 17 18  1  0
 18 19  1  0
 19 20  1  0
 20 21  1  0
 21 22  1  0
 22 23  2  0
 23 24  1  0
 24 25  2  0
 25 26  1  0
 26 27  2  0
 27 28  1  0
 21 29  2  0
 29 30  1  0
 30 31  1  0
 31 32  1  0
 32 33  1  0
 33 34  1  0
 15 35  1  0
 35 36  1  0
 11 37  1  0
 37 38  2  0
 38  2  1  0
 38  8  1  0
 36 12  1  0
 31 20  2  0
 34 32  1  0
 27 22  1  0
  1 39  1  0
  1 40  1  0
  1 41  1  0
  3 42  1  0
  7 43  1  0
  9 44  1  0
 10 45  1  0
 13 46  1  0
 13 47  1  0
 14 48  1  0
 14 49  1  0
 17 50  1  0
 17 51  1  0
 19 52  1  0
 19 53  1  0
 23 54  1  0
 24 55  1  0
 25 56  1  0
 26 57  1  0
 32 58  1  0
 33 59  1  0
 33 60  1  0
 34 61  1  0
 34 62  1  0
 35 63  1  0
 35 64  1  0
 36 65  1  0
 36 66  1  0
 37 67  1  0
M  END
>  <pEC50>  (15) 
6.097

$$$$
22
     RDKit          3D

 70 75  0  0  0  0  0  0  0  0999 V2000
    5.9936   -1.2987   -3.8556 C   0  0  0  0  0  0  0  0  0  0  0  0
    6.3844   -1.1231   -2.4704 N   0  0  0  0  0  0  0  0  0  0  0  0
    7.6178   -1.3036   -2.0018 C   0  0  0  0  0  0  0  0  0  0  0  0
    7.5968   -1.0311   -0.6446 C   0  0  0  0  0  0  0  0  0  0  0  0
    8.7073   -1.1082    0.2761 C   0  0  0  0  0  0  0  0  0  0  0  0
    9.8422   -1.4432   -0.1871 O   0  0  0  0  0  0  0  0  0  0  0  0
    8.5547   -0.8343    1.6095 O   0  0  0  0  0  0  0  0  0  0  0  0
    6.2959   -0.6833   -0.3470 C   0  0  0  0  0  0  0  0  0  0  0  0
    5.6691   -0.3106    0.8201 C   0  0  0  0  0  0  0  0  0  0  0  0
    4.3137   -0.0065    0.8286 C   0  0  0  0  0  0  0  0  0  0  0  0
    3.5716   -0.0714   -0.3210 C   0  0  0  0  0  0  0  0  0  0  0  0
    2.2056    0.2380   -0.3362 N   0  0  0  0  0  0  0  0  0  0  0  0
    1.7649    1.6076   -0.2215 C   0  0  0  0  0  0  0  0  0  0  0  0
    0.4746    1.7977   -1.0443 C   0  0  0  0  0  0  0  0  0  0  0  0
   -0.6325    0.9547   -0.4252 C   0  0  0  0  0  0  0  0  0  0  0  0
   -1.2083    1.7830    0.5389 F   0  0  0  0  0  0  0  0  0  0  0  0
   -1.6158    0.6205   -1.4838 C   0  0  0  0  0  0  0  0  0  0  0  0
   -2.6858   -0.1556   -1.1410 O   0  0  0  0  0  0  0  0  0  0  0  0
   -3.4716    0.3022   -0.0936 C   0  0  0  0  0  0  0  0  0  0  0  0
   -4.6088   -0.6714    0.1034 C   0  0  0  0  0  0  0  0  0  0  0  0
   -5.9304   -0.2998    0.3280 C   0  0  0  0  0  0  0  0  0  0  0  0
   -6.4513    1.0522    0.5218 C   0  0  0  0  0  0  0  0  0  0  0  0
   -6.6057    1.9813   -0.4688 C   0  0  0  0  0  0  0  0  0  0  0  0
   -7.1397    3.2333   -0.2479 C   0  0  0  0  0  0  0  0  0  0  0  0
   -7.5496    3.5882    1.0428 C   0  0  0  0  0  0  0  0  0  0  0  0
   -7.3961    2.6596    2.0385 C   0  0  0  0  0  0  0  0  0  0  0  0
   -6.8578    1.4078    1.8048 C   0  0  0  0  0  0  0  0  0  0  0  0
   -6.6654    0.4493    2.9360 C   0  0  0  0  0  0  0  0  0  0  0  0
   -7.1344    1.0942    4.0877 F   0  0  0  0  0  0  0  0  0  0  0  0
   -5.3050    0.2239    3.1412 F   0  0  0  0  0  0  0  0  0  0  0  0
   -7.3811   -0.7150    2.7922 F   0  0  0  0  0  0  0  0  0  0  0  0
   -6.6055   -1.4604    0.4240 N   0  0  0  0  0  0  0  0  0  0  0  0
   -5.7978   -2.4565    0.2762 O   0  0  0  0  0  0  0  0  0  0  0  0
   -4.5502   -2.0414    0.0753 C   0  0  0  0  0  0  0  0  0  0  0  0
   -3.3527   -2.8878   -0.1341 C   0  0  0  0  0  0  0  0  0  0  0  0
   -2.9203   -3.2424   -1.5630 C   0  0  0  0  0  0  0  0  0  0  0  0
   -3.5433   -4.2521   -0.6962 C   0  0  0  0  0  0  0  0  0  0  0  0
   -0.0446   -0.2204    0.2762 C   0  0  0  0  0  0  0  0  0  0  0  0
    1.1640   -0.7855   -0.4599 C   0  0  0  0  0  0  0  0  0  0  0  0
    4.2171   -0.4481   -1.4883 C   0  0  0  0  0  0  0  0  0  0  0  0
    5.5426   -0.7429   -1.4881 C   0  0  0  0  0  0  0  0  0  0  0  0
    5.3136   -0.4570   -4.1418 H   0  0  0  0  0  0  0  0  0  0  0  0
    6.8941   -1.2404   -4.5101 H   0  0  0  0  0  0  0  0  0  0  0  0
    5.5312   -2.2689   -3.9923 H   0  0  0  0  0  0  0  0  0  0  0  0
    8.4949   -1.6078   -2.5548 H   0  0  0  0  0  0  0  0  0  0  0  0
    9.2604   -1.0969    2.2948 H   0  0  0  0  0  0  0  0  0  0  0  0
    6.2766   -0.2667    1.7316 H   0  0  0  0  0  0  0  0  0  0  0  0
    3.8751    0.2817    1.7709 H   0  0  0  0  0  0  0  0  0  0  0  0
    1.5635    1.8742    0.8550 H   0  0  0  0  0  0  0  0  0  0  0  0
    2.5320    2.2584   -0.6435 H   0  0  0  0  0  0  0  0  0  0  0  0
    0.2523    2.8583   -1.0471 H   0  0  0  0  0  0  0  0  0  0  0  0
    0.7317    1.4576   -2.0600 H   0  0  0  0  0  0  0  0  0  0  0  0
   -1.8948    1.5521   -2.0213 H   0  0  0  0  0  0  0  0  0  0  0  0
   -1.0346    0.0387   -2.2795 H   0  0  0  0  0  0  0  0  0  0  0  0
   -3.9838    1.2516   -0.4832 H   0  0  0  0  0  0  0  0  0  0  0  0
   -2.9518    0.5016    0.8443 H   0  0  0  0  0  0  0  0  0  0  0  0
   -6.3036    1.7415   -1.4719 H   0  0  0  0  0  0  0  0  0  0  0  0
   -7.2692    3.9780   -0.9910 H   0  0  0  0  0  0  0  0  0  0  0  0
   -7.9764    4.5878    1.2193 H   0  0  0  0  0  0  0  0  0  0  0  0
   -7.7079    2.9293    3.0612 H   0  0  0  0  0  0  0  0  0  0  0  0
   -2.5059   -2.6475    0.5177 H   0  0  0  0  0  0  0  0  0  0  0  0
   -3.4883   -2.8049   -2.4124 H   0  0  0  0  0  0  0  0  0  0  0  0
   -1.8349   -3.3173   -1.7893 H   0  0  0  0  0  0  0  0  0  0  0  0
   -2.9170   -5.0308   -0.2713 H   0  0  0  0  0  0  0  0  0  0  0  0
   -4.6174   -4.5140   -0.9087 H   0  0  0  0  0  0  0  0  0  0  0  0
    0.3451    0.1493    1.2648 H   0  0  0  0  0  0  0  0  0  0  0  0
   -0.7487   -1.0185    0.5103 H   0  0  0  0  0  0  0  0  0  0  0  0
    0.9649   -1.0636   -1.4936 H   0  0  0  0  0  0  0  0  0  0  0  0
    1.4852   -1.6829    0.0963 H   0  0  0  0  0  0  0  0  0  0  0  0
    3.6196   -0.4960   -2.3779 H   0  0  0  0  0  0  0  0  0  0  0  0
  1  2  1  0
  2  3  1  0
  3  4  2  0
  4  5  1  0
  5  6  2  0
  5  7  1  0
  4  8  1  0
  8  9  2  0
  9 10  1  0
 10 11  2  0
 11 12  1  0
 12 13  1  0
 13 14  1  0
 14 15  1  0
 15 16  1  0
 15 17  1  0
 17 18  1  0
 18 19  1  0
 19 20  1  0
 20 21  1  0
 21 22  1  0
 22 23  2  0
 23 24  1  0
 24 25  2  0
 25 26  1  0
 26 27  2  0
 27 28  1  0
 28 29  1  0
 28 30  1  0
 28 31  1  0
 21 32  2  0
 32 33  1  0
 33 34  1  0
 34 35  1  0
 35 36  1  0
 36 37  1  0
 15 38  1  0
 38 39  1  0
 11 40  1  0
 40 41  2  0
 41  2  1  0
 41  8  1  0
 39 12  1  0
 34 20  2  0
 37 35  1  0
 27 22  1  0
  1 42  1  0
  1 43  1  0
  1 44  1  0
  3 45  1  0
  7 46  1  0
  9 47  1  0
 10 48  1  0
 13 49  1  0
 13 50  1  0
 14 51  1  0
 14 52  1  0
 17 53  1  0
 17 54  1  0
 19 55  1  0
 19 56  1  0
 23 57  1  0
 24 58  1  0
 25 59  1  0
 26 60  1  0
 35 61  1  0
 36 62  1  0
 36 63  1  0
 37 64  1  0
 37 65  1  0
 38 66  1  0
 38 67  1  0
 39 68  1  0
 39 69  1  0
 40 70  1  0
M  END
>  <pEC50>  (16) 
6.377

$$$$
23
     RDKit          3D

 71 76  0  0  0  0  0  0  0  0999 V2000
    6.4693    0.5069    2.6921 C   0  0  0  0  0  0  0  0  0  0  0  0
    6.5498   -0.1469    1.4038 N   0  0  0  0  0  0  0  0  0  0  0  0
    7.5991   -0.8473    0.9399 C   0  0  0  0  0  0  0  0  0  0  0  0
    7.3056   -1.3137   -0.3165 C   0  0  0  0  0  0  0  0  0  0  0  0
    8.1309   -2.1183   -1.2170 C   0  0  0  0  0  0  0  0  0  0  0  0
    7.6911   -2.4517   -2.3446 O   0  0  0  0  0  0  0  0  0  0  0  0
    9.3824   -2.5122   -0.8398 O   0  0  0  0  0  0  0  0  0  0  0  0
    6.0245   -0.8584   -0.5859 C   0  0  0  0  0  0  0  0  0  0  0  0
    5.1732   -0.9810   -1.6571 C   0  0  0  0  0  0  0  0  0  0  0  0
    3.9042   -0.4104   -1.6761 C   0  0  0  0  0  0  0  0  0  0  0  0
    3.4371    0.3164   -0.6005 C   0  0  0  0  0  0  0  0  0  0  0  0
    2.1220    0.8892   -0.6292 N   0  0  0  0  0  0  0  0  0  0  0  0
    1.0767    0.4271   -1.5224 C   0  0  0  0  0  0  0  0  0  0  0  0
   -0.0127   -0.1358   -0.6395 C   0  0  0  0  0  0  0  0  0  0  0  0
   -0.5394    0.7973    0.3929 C   0  0  0  0  0  0  0  0  0  0  0  0
   -0.7897    0.0692    1.5415 F   0  0  0  0  0  0  0  0  0  0  0  0
   -1.8542    1.3410   -0.0895 C   0  0  0  0  0  0  0  0  0  0  0  0
   -2.8762    0.4959   -0.3363 O   0  0  0  0  0  0  0  0  0  0  0  0
   -3.3546   -0.2160    0.6972 C   0  0  0  0  0  0  0  0  0  0  0  0
   -4.5795   -1.0091    0.4042 C   0  0  0  0  0  0  0  0  0  0  0  0
   -5.8498   -0.3928    0.3078 C   0  0  0  0  0  0  0  0  0  0  0  0
   -6.1464    1.0133    0.4510 C   0  0  0  0  0  0  0  0  0  0  0  0
   -5.6603    1.9497   -0.4582 C   0  0  0  0  0  0  0  0  0  0  0  0
   -5.8857    3.2926   -0.3831 C   0  0  0  0  0  0  0  0  0  0  0  0
   -6.6467    3.7506    0.6638 C   0  0  0  0  0  0  0  0  0  0  0  0
   -7.1484    2.8714    1.5827 C   0  0  0  0  0  0  0  0  0  0  0  0
   -6.9037    1.4777    1.4874 C   0  0  0  0  0  0  0  0  0  0  0  0
   -7.4782    0.7083    2.4799 O   0  0  0  0  0  0  0  0  0  0  0  0
   -8.7895    0.2445    2.4829 C   0  0  0  0  0  0  0  0  0  0  0  0
   -9.1154   -0.5445    1.4245 F   0  0  0  0  0  0  0  0  0  0  0  0
   -9.0221   -0.4990    3.6472 F   0  0  0  0  0  0  0  0  0  0  0  0
   -9.6669    1.3246    2.4499 F   0  0  0  0  0  0  0  0  0  0  0  0
   -6.6637   -1.4358    0.0993 N   0  0  0  0  0  0  0  0  0  0  0  0
   -6.0477   -2.5525    0.0607 O   0  0  0  0  0  0  0  0  0  0  0  0
   -4.7404   -2.3582    0.2439 C   0  0  0  0  0  0  0  0  0  0  0  0
   -3.6972   -3.4053    0.2624 C   0  0  0  0  0  0  0  0  0  0  0  0
   -3.4063   -4.0978   -1.0081 C   0  0  0  0  0  0  0  0  0  0  0  0
   -2.4360   -3.0490   -0.5381 C   0  0  0  0  0  0  0  0  0  0  0  0
    0.3595    1.9181    0.7830 C   0  0  0  0  0  0  0  0  0  0  0  0
    1.7086    1.9979    0.2039 C   0  0  0  0  0  0  0  0  0  0  0  0
    4.2873    0.4413    0.4747 C   0  0  0  0  0  0  0  0  0  0  0  0
    5.5642   -0.1344    0.4897 C   0  0  0  0  0  0  0  0  0  0  0  0
    7.4282    0.9951    2.9802 H   0  0  0  0  0  0  0  0  0  0  0  0
    5.6678    1.2807    2.7126 H   0  0  0  0  0  0  0  0  0  0  0  0
    6.1875   -0.2223    3.5077 H   0  0  0  0  0  0  0  0  0  0  0  0
    8.5418   -1.0298    1.4574 H   0  0  0  0  0  0  0  0  0  0  0  0
   10.0002   -2.8837   -1.5767 H   0  0  0  0  0  0  0  0  0  0  0  0
    5.5433   -1.5541   -2.5028 H   0  0  0  0  0  0  0  0  0  0  0  0
    3.3057   -0.5558   -2.5698 H   0  0  0  0  0  0  0  0  0  0  0  0
    0.7385    1.3246   -2.0795 H   0  0  0  0  0  0  0  0  0  0  0  0
    1.3943   -0.4021   -2.1757 H   0  0  0  0  0  0  0  0  0  0  0  0
    0.3766   -1.0777   -0.2063 H   0  0  0  0  0  0  0  0  0  0  0  0
   -0.8207   -0.4348   -1.3512 H   0  0  0  0  0  0  0  0  0  0  0  0
   -2.1909    2.1174    0.6881 H   0  0  0  0  0  0  0  0  0  0  0  0
   -1.6438    2.0062   -0.9878 H   0  0  0  0  0  0  0  0  0  0  0  0
   -2.5957   -1.0045    0.9950 H   0  0  0  0  0  0  0  0  0  0  0  0
   -3.4821    0.3692    1.6482 H   0  0  0  0  0  0  0  0  0  0  0  0
   -5.0775    1.5973   -1.2968 H   0  0  0  0  0  0  0  0  0  0  0  0
   -5.4944    4.0100   -1.1075 H   0  0  0  0  0  0  0  0  0  0  0  0
   -6.8571    4.8193    0.7718 H   0  0  0  0  0  0  0  0  0  0  0  0
   -7.7419    3.2509    2.3954 H   0  0  0  0  0  0  0  0  0  0  0  0
   -3.5137   -3.9144    1.2291 H   0  0  0  0  0  0  0  0  0  0  0  0
   -4.0206   -3.8338   -1.9111 H   0  0  0  0  0  0  0  0  0  0  0  0
   -3.1118   -5.1751   -0.9118 H   0  0  0  0  0  0  0  0  0  0  0  0
   -2.4351   -2.0913   -1.1091 H   0  0  0  0  0  0  0  0  0  0  0  0
   -1.4668   -3.3709   -0.1560 H   0  0  0  0  0  0  0  0  0  0  0  0
    0.4790    1.9776    1.9053 H   0  0  0  0  0  0  0  0  0  0  0  0
   -0.1716    2.8916    0.5622 H   0  0  0  0  0  0  0  0  0  0  0  0
    1.8080    2.9002   -0.4870 H   0  0  0  0  0  0  0  0  0  0  0  0
    2.5088    2.1751    0.9463 H   0  0  0  0  0  0  0  0  0  0  0  0
    3.9990    0.9821    1.3452 H   0  0  0  0  0  0  0  0  0  0  0  0
  1  2  1  0
  2  3  1  0
  3  4  2  0
  4  5  1  0
  5  6  2  0
  5  7  1  0
  4  8  1  0
  8  9  2  0
  9 10  1  0
 10 11  2  0
 11 12  1  0
 12 13  1  0
 13 14  1  0
 14 15  1  0
 15 16  1  0
 15 17  1  0
 17 18  1  0
 18 19  1  0
 19 20  1  0
 20 21  1  0
 21 22  1  0
 22 23  2  0
 23 24  1  0
 24 25  2  0
 25 26  1  0
 26 27  2  0
 27 28  1  0
 28 29  1  0
 29 30  1  0
 29 31  1  0
 29 32  1  0
 21 33  2  0
 33 34  1  0
 34 35  1  0
 35 36  1  0
 36 37  1  0
 37 38  1  0
 15 39  1  0
 39 40  1  0
 11 41  1  0
 41 42  2  0
 42  2  1  0
 42  8  1  0
 40 12  1  0
 35 20  2  0
 38 36  1  0
 27 22  1  0
  1 43  1  0
  1 44  1  0
  1 45  1  0
  3 46  1  0
  7 47  1  0
  9 48  1  0
 10 49  1  0
 13 50  1  0
 13 51  1  0
 14 52  1  0
 14 53  1  0
 17 54  1  0
 17 55  1  0
 19 56  1  0
 19 57  1  0
 23 58  1  0
 24 59  1  0
 25 60  1  0
 26 61  1  0
 36 62  1  0
 37 63  1  0
 37 64  1  0
 38 65  1  0
 38 66  1  0
 39 67  1  0
 39 68  1  0
 40 69  1  0
 40 70  1  0
 41 71  1  0
M  END
>  <pEC50>  (17) 
6.31

$$$$
24
     RDKit          3D

 71 76  0  0  0  0  0  0  0  0999 V2000
    6.5405    0.1329    3.0057 C   0  0  0  0  0  0  0  0  0  0  0  0
    6.6542   -0.0708    1.5720 N   0  0  0  0  0  0  0  0  0  0  0  0
    7.8480   -0.2850    0.9396 C   0  0  0  0  0  0  0  0  0  0  0  0
    7.6008   -0.4429   -0.4029 C   0  0  0  0  0  0  0  0  0  0  0  0
    8.5903   -0.6919   -1.4432 C   0  0  0  0  0  0  0  0  0  0  0  0
    9.8171   -0.7815   -1.1636 O   0  0  0  0  0  0  0  0  0  0  0  0
    8.1983   -0.8361   -2.7664 O   0  0  0  0  0  0  0  0  0  0  0  0
    6.2355   -0.3158   -0.5360 C   0  0  0  0  0  0  0  0  0  0  0  0
    5.4073   -0.3848   -1.6341 C   0  0  0  0  0  0  0  0  0  0  0  0
    4.0594   -0.2254   -1.4709 C   0  0  0  0  0  0  0  0  0  0  0  0
    3.4691    0.0068   -0.2340 C   0  0  0  0  0  0  0  0  0  0  0  0
    2.0391    0.1077   -0.1834 N   0  0  0  0  0  0  0  0  0  0  0  0
    1.2700   -0.5636   -1.2527 C   0  0  0  0  0  0  0  0  0  0  0  0
   -0.1738   -0.4714   -0.8171 C   0  0  0  0  0  0  0  0  0  0  0  0
   -0.5537    1.0068   -0.7914 C   0  0  0  0  0  0  0  0  0  0  0  0
   -0.4762    1.5160   -2.0498 F   0  0  0  0  0  0  0  0  0  0  0  0
   -2.0627    1.0889   -0.3800 C   0  0  0  0  0  0  0  0  0  0  0  0
   -2.7356    0.3902   -1.2808 O   0  0  0  0  0  0  0  0  0  0  0  0
   -4.0380    0.1379   -1.3703 C   0  0  0  0  0  0  0  0  0  0  0  0
   -4.5576   -0.5320   -0.1487 C   0  0  0  0  0  0  0  0  0  0  0  0
   -5.4158   -0.0172    0.7692 C   0  0  0  0  0  0  0  0  0  0  0  0
   -6.2093    1.2089    0.7194 C   0  0  0  0  0  0  0  0  0  0  0  0
   -6.8615    1.6076   -0.4299 C   0  0  0  0  0  0  0  0  0  0  0  0
   -7.6680    2.7333   -0.5065 C   0  0  0  0  0  0  0  0  0  0  0  0
   -7.8153    3.4813    0.6386 C   0  0  0  0  0  0  0  0  0  0  0  0
   -7.1912    3.1343    1.8169 C   0  0  0  0  0  0  0  0  0  0  0  0
   -7.4163    3.9520    2.8934 O   0  0  0  0  0  0  0  0  0  0  0  0
   -6.6772    5.0691    3.2948 C   0  0  0  0  0  0  0  0  0  0  0  0
   -7.2694    5.6079    4.4441 F   0  0  0  0  0  0  0  0  0  0  0  0
   -5.3491    4.8645    3.4861 F   0  0  0  0  0  0  0  0  0  0  0  0
   -6.8334    6.0147    2.2727 F   0  0  0  0  0  0  0  0  0  0  0  0
   -6.3841    1.9866    1.8414 C   0  0  0  0  0  0  0  0  0  0  0  0
   -5.5028   -0.9299    1.7933 N   0  0  0  0  0  0  0  0  0  0  0  0
   -4.7637   -1.9321    1.5344 O   0  0  0  0  0  0  0  0  0  0  0  0
   -4.1531   -1.7490    0.3502 C   0  0  0  0  0  0  0  0  0  0  0  0
   -3.2353   -2.7460   -0.2028 C   0  0  0  0  0  0  0  0  0  0  0  0
   -3.9148   -3.8908   -0.9653 C   0  0  0  0  0  0  0  0  0  0  0  0
   -2.8930   -2.9732   -1.5943 C   0  0  0  0  0  0  0  0  0  0  0  0
    0.2792    1.7235    0.2063 C   0  0  0  0  0  0  0  0  0  0  0  0
    1.3088    0.8083    0.8202 C   0  0  0  0  0  0  0  0  0  0  0  0
    4.2859    0.0787    0.8670 C   0  0  0  0  0  0  0  0  0  0  0  0
    5.6525   -0.0837    0.7003 C   0  0  0  0  0  0  0  0  0  0  0  0
    7.4340    0.6918    3.3822 H   0  0  0  0  0  0  0  0  0  0  0  0
    6.5911   -0.8761    3.4806 H   0  0  0  0  0  0  0  0  0  0  0  0
    5.5886    0.6012    3.2859 H   0  0  0  0  0  0  0  0  0  0  0  0
    8.7964   -0.3168    1.4570 H   0  0  0  0  0  0  0  0  0  0  0  0
    8.8428   -0.7316   -3.5408 H   0  0  0  0  0  0  0  0  0  0  0  0
    5.8715   -0.5659   -2.5958 H   0  0  0  0  0  0  0  0  0  0  0  0
    3.4536   -0.2884   -2.3532 H   0  0  0  0  0  0  0  0  0  0  0  0
    1.4475   -0.0044   -2.1925 H   0  0  0  0  0  0  0  0  0  0  0  0
    1.5506   -1.6141   -1.3689 H   0  0  0  0  0  0  0  0  0  0  0  0
   -0.7940   -0.9532   -1.6184 H   0  0  0  0  0  0  0  0  0  0  0  0
   -0.3293   -0.9908    0.1177 H   0  0  0  0  0  0  0  0  0  0  0  0
   -2.0856    0.5958    0.6218 H   0  0  0  0  0  0  0  0  0  0  0  0
   -2.3352    2.1641   -0.3010 H   0  0  0  0  0  0  0  0  0  0  0  0
   -4.5313    1.1753   -1.4448 H   0  0  0  0  0  0  0  0  0  0  0  0
   -4.2730   -0.4083   -2.3081 H   0  0  0  0  0  0  0  0  0  0  0  0
   -6.7769    1.0265   -1.3130 H   0  0  0  0  0  0  0  0  0  0  0  0
   -8.1490    2.9757   -1.4633 H   0  0  0  0  0  0  0  0  0  0  0  0
   -8.4658    4.3691    0.5548 H   0  0  0  0  0  0  0  0  0  0  0  0
   -5.9106    1.7521    2.7858 H   0  0  0  0  0  0  0  0  0  0  0  0
   -2.4892   -3.0958    0.5890 H   0  0  0  0  0  0  0  0  0  0  0  0
   -3.6339   -4.8992   -0.6377 H   0  0  0  0  0  0  0  0  0  0  0  0
   -4.9771   -3.7681   -1.2730 H   0  0  0  0  0  0  0  0  0  0  0  0
   -3.2019   -2.3719   -2.4573 H   0  0  0  0  0  0  0  0  0  0  0  0
   -1.8807   -3.4748   -1.7500 H   0  0  0  0  0  0  0  0  0  0  0  0
   -0.3422    2.2154    0.9984 H   0  0  0  0  0  0  0  0  0  0  0  0
    0.8773    2.5052   -0.3434 H   0  0  0  0  0  0  0  0  0  0  0  0
    0.7439    0.0729    1.4517 H   0  0  0  0  0  0  0  0  0  0  0  0
    1.9843    1.3737    1.5198 H   0  0  0  0  0  0  0  0  0  0  0  0
    3.8211    0.2589    1.8260 H   0  0  0  0  0  0  0  0  0  0  0  0
  1  2  1  0
  2  3  1  0
  3  4  2  0
  4  5  1  0
  5  6  2  0
  5  7  1  0
  4  8  1  0
  8  9  2  0
  9 10  1  0
 10 11  2  0
 11 12  1  0
 12 13  1  0
 13 14  1  0
 14 15  1  0
 15 16  1  0
 15 17  1  0
 17 18  1  0
 18 19  1  0
 19 20  1  0
 20 21  1  0
 21 22  1  0
 22 23  2  0
 23 24  1  0
 24 25  2  0
 25 26  1  0
 26 27  1  0
 27 28  1  0
 28 29  1  0
 28 30  1  0
 28 31  1  0
 26 32  2  0
 21 33  2  0
 33 34  1  0
 34 35  1  0
 35 36  1  0
 36 37  1  0
 37 38  1  0
 15 39  1  0
 39 40  1  0
 11 41  1  0
 41 42  2  0
 42  2  1  0
 42  8  1  0
 40 12  1  0
 35 20  2  0
 38 36  1  0
 32 22  1  0
  1 43  1  0
  1 44  1  0
  1 45  1  0
  3 46  1  0
  7 47  1  0
  9 48  1  0
 10 49  1  0
 13 50  1  0
 13 51  1  0
 14 52  1  0
 14 53  1  0
 17 54  1  0
 17 55  1  0
 19 56  1  0
 19 57  1  0
 23 58  1  0
 24 59  1  0
 25 60  1  0
 32 61  1  0
 36 62  1  0
 37 63  1  0
 37 64  1  0
 38 65  1  0
 38 66  1  0
 39 67  1  0
 39 68  1  0
 40 69  1  0
 40 70  1  0
 41 71  1  0
M  END
>  <pEC50>  (18) 
5.762

$$$$
25
     RDKit          3D

 71 76  0  0  0  0  0  0  0  0999 V2000
    6.3573   -1.2371   -3.7821 C   0  0  0  0  0  0  0  0  0  0  0  0
    6.4499   -1.0556   -2.3384 N   0  0  0  0  0  0  0  0  0  0  0  0
    7.5927   -1.2926   -1.6606 C   0  0  0  0  0  0  0  0  0  0  0  0
    7.4016   -1.0426   -0.3172 C   0  0  0  0  0  0  0  0  0  0  0  0
    8.3635   -1.1683    0.7692 C   0  0  0  0  0  0  0  0  0  0  0  0
    8.0712   -0.9112    1.9616 O   0  0  0  0  0  0  0  0  0  0  0  0
    9.6552   -1.5864    0.4946 O   0  0  0  0  0  0  0  0  0  0  0  0
    6.0793   -0.6410   -0.2193 C   0  0  0  0  0  0  0  0  0  0  0  0
    5.2976   -0.2576    0.8508 C   0  0  0  0  0  0  0  0  0  0  0  0
    3.9820    0.1004    0.6629 C   0  0  0  0  0  0  0  0  0  0  0  0
    3.3990    0.0886   -0.6011 C   0  0  0  0  0  0  0  0  0  0  0  0
    2.0399    0.4633   -0.7697 N   0  0  0  0  0  0  0  0  0  0  0  0
    1.2999    0.9226    0.4062 C   0  0  0  0  0  0  0  0  0  0  0  0
   -0.0335    1.4274   -0.0675 C   0  0  0  0  0  0  0  0  0  0  0  0
   -0.7717    0.1834   -0.6203 C   0  0  0  0  0  0  0  0  0  0  0  0
   -0.7275   -0.7292    0.3845 F   0  0  0  0  0  0  0  0  0  0  0  0
   -2.1517    0.6469   -1.0160 C   0  0  0  0  0  0  0  0  0  0  0  0
   -2.9237    1.1548   -0.0452 O   0  0  0  0  0  0  0  0  0  0  0  0
   -3.4131    0.3651    0.9557 C   0  0  0  0  0  0  0  0  0  0  0  0
   -4.4117   -0.6426    0.5890 C   0  0  0  0  0  0  0  0  0  0  0  0
   -5.7302   -0.3016    0.3593 C   0  0  0  0  0  0  0  0  0  0  0  0
   -6.4686    0.9467    0.4037 C   0  0  0  0  0  0  0  0  0  0  0  0
   -7.6445    0.9934    1.1807 C   0  0  0  0  0  0  0  0  0  0  0  0
   -8.3957    2.1379    1.2435 C   0  0  0  0  0  0  0  0  0  0  0  0
   -8.0636    3.2944    0.5693 C   0  0  0  0  0  0  0  0  0  0  0  0
   -8.8352    4.4462    0.6433 O   0  0  0  0  0  0  0  0  0  0  0  0
   -8.5980    5.4372    1.6450 C   0  0  0  0  0  0  0  0  0  0  0  0
   -8.7357    4.9332    2.9016 F   0  0  0  0  0  0  0  0  0  0  0  0
   -7.2773    5.8401    1.4844 F   0  0  0  0  0  0  0  0  0  0  0  0
   -9.3700    6.5552    1.4246 F   0  0  0  0  0  0  0  0  0  0  0  0
   -6.9149    3.2427   -0.1876 C   0  0  0  0  0  0  0  0  0  0  0  0
   -6.1344    2.0792   -0.2633 C   0  0  0  0  0  0  0  0  0  0  0  0
   -6.3460   -1.4907    0.0795 N   0  0  0  0  0  0  0  0  0  0  0  0
   -5.4855   -2.4463    0.1352 O   0  0  0  0  0  0  0  0  0  0  0  0
   -4.2732   -1.9811    0.4457 C   0  0  0  0  0  0  0  0  0  0  0  0
   -3.0707   -2.8028    0.5876 C   0  0  0  0  0  0  0  0  0  0  0  0
   -2.4857   -3.2783    1.8287 C   0  0  0  0  0  0  0  0  0  0  0  0
   -3.1545   -4.2437    0.9679 C   0  0  0  0  0  0  0  0  0  0  0  0
   -0.0123   -0.2892   -1.8226 C   0  0  0  0  0  0  0  0  0  0  0  0
    1.3201    0.4265   -2.0107 C   0  0  0  0  0  0  0  0  0  0  0  0
    4.1724   -0.2930   -1.6767 C   0  0  0  0  0  0  0  0  0  0  0  0
    5.5090   -0.6554   -1.4752 C   0  0  0  0  0  0  0  0  0  0  0  0
    6.2237   -2.2886   -4.0452 H   0  0  0  0  0  0  0  0  0  0  0  0
    7.2593   -0.8215   -4.2889 H   0  0  0  0  0  0  0  0  0  0  0  0
    5.5068   -0.5859   -4.1338 H   0  0  0  0  0  0  0  0  0  0  0  0
    8.5583   -1.6307   -2.0431 H   0  0  0  0  0  0  0  0  0  0  0  0
   10.1960   -2.1538    1.1379 H   0  0  0  0  0  0  0  0  0  0  0  0
    5.7661   -0.2525    1.8340 H   0  0  0  0  0  0  0  0  0  0  0  0
    3.3503    0.4038    1.4835 H   0  0  0  0  0  0  0  0  0  0  0  0
    1.8587    1.6912    0.9711 H   0  0  0  0  0  0  0  0  0  0  0  0
    1.1031    0.0237    1.0443 H   0  0  0  0  0  0  0  0  0  0  0  0
    0.0556    2.1931   -0.8623 H   0  0  0  0  0  0  0  0  0  0  0  0
   -0.6244    1.7997    0.7943 H   0  0  0  0  0  0  0  0  0  0  0  0
   -2.5974   -0.1715   -1.6169 H   0  0  0  0  0  0  0  0  0  0  0  0
   -1.9784    1.4748   -1.7665 H   0  0  0  0  0  0  0  0  0  0  0  0
   -3.9226    1.0756    1.6776 H   0  0  0  0  0  0  0  0  0  0  0  0
   -2.5569   -0.0097    1.5319 H   0  0  0  0  0  0  0  0  0  0  0  0
   -7.9497    0.0978    1.7353 H   0  0  0  0  0  0  0  0  0  0  0  0
   -9.3151    2.2041    1.8398 H   0  0  0  0  0  0  0  0  0  0  0  0
   -6.5970    4.1109   -0.7402 H   0  0  0  0  0  0  0  0  0  0  0  0
   -5.2449    2.0654   -0.8794 H   0  0  0  0  0  0  0  0  0  0  0  0
   -2.3704   -2.6669   -0.2720 H   0  0  0  0  0  0  0  0  0  0  0  0
   -1.3574   -3.3721    1.8945 H   0  0  0  0  0  0  0  0  0  0  0  0
   -2.8637   -2.9627    2.8254 H   0  0  0  0  0  0  0  0  0  0  0  0
   -4.1882   -4.6113    1.1193 H   0  0  0  0  0  0  0  0  0  0  0  0
   -2.5399   -5.0065    0.4434 H   0  0  0  0  0  0  0  0  0  0  0  0
    0.2126   -1.3760   -1.7941 H   0  0  0  0  0  0  0  0  0  0  0  0
   -0.5922   -0.1218   -2.7522 H   0  0  0  0  0  0  0  0  0  0  0  0
    1.8247   -0.1141   -2.8276 H   0  0  0  0  0  0  0  0  0  0  0  0
    1.1360    1.4585   -2.4163 H   0  0  0  0  0  0  0  0  0  0  0  0
    3.8068   -0.3310   -2.6911 H   0  0  0  0  0  0  0  0  0  0  0  0
  1  2  1  0
  2  3  1  0
  3  4  2  0
  4  5  1  0
  5  6  2  0
  5  7  1  0
  4  8  1  0
  8  9  2  0
  9 10  1  0
 10 11  2  0
 11 12  1  0
 12 13  1  0
 13 14  1  0
 14 15  1  0
 15 16  1  0
 15 17  1  0
 17 18  1  0
 18 19  1  0
 19 20  1  0
 20 21  1  0
 21 22  1  0
 22 23  2  0
 23 24  1  0
 24 25  2  0
 25 26  1  0
 26 27  1  0
 27 28  1  0
 27 29  1  0
 27 30  1  0
 25 31  1  0
 31 32  2  0
 21 33  2  0
 33 34  1  0
 34 35  1  0
 35 36  1  0
 36 37  1  0
 37 38  1  0
 15 39  1  0
 39 40  1  0
 11 41  1  0
 41 42  2  0
 42  2  1  0
 42  8  1  0
 40 12  1  0
 35 20  2  0
 38 36  1  0
 32 22  1  0
  1 43  1  0
  1 44  1  0
  1 45  1  0
  3 46  1  0
  7 47  1  0
  9 48  1  0
 10 49  1  0
 13 50  1  0
 13 51  1  0
 14 52  1  0
 14 53  1  0
 17 54  1  0
 17 55  1  0
 19 56  1  0
 19 57  1  0
 23 58  1  0
 24 59  1  0
 31 60  1  0
 32 61  1  0
 36 62  1  0
 37 63  1  0
 37 64  1  0
 38 65  1  0
 38 66  1  0
 39 67  1  0
 39 68  1  0
 40 69  1  0
 40 70  1  0
 41 71  1  0
M  END
>  <pEC50>  (19) 
5.47

$$$$
26
     RDKit          3D

 70 75  0  0  0  0  0  0  0  0999 V2000
    6.1787   -0.6302    3.6278 C   0  0  0  0  0  0  0  0  0  0  0  0
    6.5970    0.4888    2.6765 C   0  0  0  0  0  0  0  0  0  0  0  0
    6.6448   -0.0880    1.3444 N   0  0  0  0  0  0  0  0  0  0  0  0
    7.7244   -0.6580    0.7992 C   0  0  0  0  0  0  0  0  0  0  0  0
    7.3936   -1.0879   -0.4654 C   0  0  0  0  0  0  0  0  0  0  0  0
    8.2863   -1.7687   -1.4180 C   0  0  0  0  0  0  0  0  0  0  0  0
    7.8387   -2.0943   -2.5319 O   0  0  0  0  0  0  0  0  0  0  0  0
    9.5963   -2.0250   -1.0440 O   0  0  0  0  0  0  0  0  0  0  0  0
    6.0650   -0.7470   -0.6479 C   0  0  0  0  0  0  0  0  0  0  0  0
    5.2315   -0.9439   -1.7371 C   0  0  0  0  0  0  0  0  0  0  0  0
    3.9175   -0.4865   -1.6350 C   0  0  0  0  0  0  0  0  0  0  0  0
    3.4346    0.1392   -0.5128 C   0  0  0  0  0  0  0  0  0  0  0  0
    2.0891    0.6142   -0.3805 N   0  0  0  0  0  0  0  0  0  0  0  0
    1.1245    0.2669   -1.3693 C   0  0  0  0  0  0  0  0  0  0  0  0
   -0.2580   -0.0331   -0.7495 C   0  0  0  0  0  0  0  0  0  0  0  0
   -0.6316    0.8930    0.3352 C   0  0  0  0  0  0  0  0  0  0  0  0
   -0.3351    0.2561    1.5691 F   0  0  0  0  0  0  0  0  0  0  0  0
   -1.9890    1.4709    0.3708 C   0  0  0  0  0  0  0  0  0  0  0  0
   -3.0890    0.7115    0.5049 O   0  0  0  0  0  0  0  0  0  0  0  0
   -3.3301   -0.2171   -0.4309 C   0  0  0  0  0  0  0  0  0  0  0  0
   -4.6289   -0.9341   -0.2323 C   0  0  0  0  0  0  0  0  0  0  0  0
   -5.8732   -0.4413   -0.5195 C   0  0  0  0  0  0  0  0  0  0  0  0
   -6.1570    0.8721   -1.0772 C   0  0  0  0  0  0  0  0  0  0  0  0
   -6.1927    1.0464   -2.4422 C   0  0  0  0  0  0  0  0  0  0  0  0
   -5.9550   -0.0380   -3.2140 F   0  0  0  0  0  0  0  0  0  0  0  0
   -6.4627    2.2914   -2.9401 C   0  0  0  0  0  0  0  0  0  0  0  0
   -6.6987    3.3696   -2.0792 C   0  0  0  0  0  0  0  0  0  0  0  0
   -6.6609    3.1847   -0.7131 C   0  0  0  0  0  0  0  0  0  0  0  0
   -6.3865    1.9197   -0.1928 C   0  0  0  0  0  0  0  0  0  0  0  0
   -6.3402    1.6873    1.5559 Cl  0  0  0  0  0  0  0  0  0  0  0  0
   -6.7333   -1.4340   -0.1766 N   0  0  0  0  0  0  0  0  0  0  0  0
   -6.0702   -2.4619    0.2873 O   0  0  0  0  0  0  0  0  0  0  0  0
   -4.7708   -2.1980    0.2711 C   0  0  0  0  0  0  0  0  0  0  0  0
   -3.6893   -3.1090    0.7170 C   0  0  0  0  0  0  0  0  0  0  0  0
   -3.0084   -4.0477   -0.1742 C   0  0  0  0  0  0  0  0  0  0  0  0
   -4.1040   -4.5824    0.7372 C   0  0  0  0  0  0  0  0  0  0  0  0
    0.3596    2.0746    0.3128 C   0  0  0  0  0  0  0  0  0  0  0  0
    1.7029    1.4559    0.7339 C   0  0  0  0  0  0  0  0  0  0  0  0
    4.2971    0.3264    0.5751 C   0  0  0  0  0  0  0  0  0  0  0  0
    5.5952   -0.1220    0.4822 C   0  0  0  0  0  0  0  0  0  0  0  0
    5.9116   -0.1955    4.6185 H   0  0  0  0  0  0  0  0  0  0  0  0
    7.0039   -1.3477    3.7641 H   0  0  0  0  0  0  0  0  0  0  0  0
    5.2738   -1.0962    3.1913 H   0  0  0  0  0  0  0  0  0  0  0  0
    5.8501    1.2945    2.7030 H   0  0  0  0  0  0  0  0  0  0  0  0
    7.6222    0.8387    2.9358 H   0  0  0  0  0  0  0  0  0  0  0  0
    8.7192   -0.7945    1.2177 H   0  0  0  0  0  0  0  0  0  0  0  0
   10.2994   -2.3022   -1.7319 H   0  0  0  0  0  0  0  0  0  0  0  0
    5.6029   -1.4305   -2.6128 H   0  0  0  0  0  0  0  0  0  0  0  0
    3.2778   -0.6442   -2.5022 H   0  0  0  0  0  0  0  0  0  0  0  0
    0.9944    1.0845   -2.1230 H   0  0  0  0  0  0  0  0  0  0  0  0
    1.4098   -0.6725   -1.8752 H   0  0  0  0  0  0  0  0  0  0  0  0
   -0.2026   -1.0918   -0.4229 H   0  0  0  0  0  0  0  0  0  0  0  0
   -0.9319    0.0250   -1.6326 H   0  0  0  0  0  0  0  0  0  0  0  0
   -2.0104    2.3556    1.1067 H   0  0  0  0  0  0  0  0  0  0  0  0
   -2.1198    2.0391   -0.6240 H   0  0  0  0  0  0  0  0  0  0  0  0
   -2.5193   -0.9973   -0.3556 H   0  0  0  0  0  0  0  0  0  0  0  0
   -3.2742    0.1813   -1.4638 H   0  0  0  0  0  0  0  0  0  0  0  0
   -6.4958    2.4514   -4.0039 H   0  0  0  0  0  0  0  0  0  0  0  0
   -6.9108    4.3490   -2.4956 H   0  0  0  0  0  0  0  0  0  0  0  0
   -6.8484    4.0402   -0.0463 H   0  0  0  0  0  0  0  0  0  0  0  0
   -3.1574   -2.7666    1.6349 H   0  0  0  0  0  0  0  0  0  0  0  0
   -1.9588   -4.3369    0.1271 H   0  0  0  0  0  0  0  0  0  0  0  0
   -3.1980   -4.0894   -1.2658 H   0  0  0  0  0  0  0  0  0  0  0  0
   -5.0527   -4.8740    0.2391 H   0  0  0  0  0  0  0  0  0  0  0  0
   -3.8336   -5.1812    1.6070 H   0  0  0  0  0  0  0  0  0  0  0  0
    0.4337    2.4724   -0.7029 H   0  0  0  0  0  0  0  0  0  0  0  0
    0.0473    2.8394    1.0377 H   0  0  0  0  0  0  0  0  0  0  0  0
    1.4830    0.7916    1.5982 H   0  0  0  0  0  0  0  0  0  0  0  0
    2.4497    2.2384    0.9657 H   0  0  0  0  0  0  0  0  0  0  0  0
    3.9831    0.8087    1.4844 H   0  0  0  0  0  0  0  0  0  0  0  0
  1  2  1  0
  2  3  1  0
  3  4  1  0
  4  5  2  0
  5  6  1  0
  6  7  2  0
  6  8  1  0
  5  9  1  0
  9 10  2  0
 10 11  1  0
 11 12  2  0
 12 13  1  0
 13 14  1  0
 14 15  1  0
 15 16  1  0
 16 17  1  0
 16 18  1  0
 18 19  1  0
 19 20  1  0
 20 21  1  0
 21 22  1  0
 22 23  1  0
 23 24  2  0
 24 25  1  0
 24 26  1  0
 26 27  2  0
 27 28  1  0
 28 29  2  0
 29 30  1  0
 22 31  2  0
 31 32  1  0
 32 33  1  0
 33 34  1  0
 34 35  1  0
 35 36  1  0
 16 37  1  0
 37 38  1  0
 12 39  1  0
 39 40  2  0
 40  3  1  0
 40  9  1  0
 38 13  1  0
 33 21  2  0
 36 34  1  0
 29 23  1  0
  1 41  1  0
  1 42  1  0
  1 43  1  0
  2 44  1  0
  2 45  1  0
  4 46  1  0
  8 47  1  0
 10 48  1  0
 11 49  1  0
 14 50  1  0
 14 51  1  0
 15 52  1  0
 15 53  1  0
 18 54  1  0
 18 55  1  0
 20 56  1  0
 20 57  1  0
 26 58  1  0
 27 59  1  0
 28 60  1  0
 34 61  1  0
 35 62  1  0
 35 63  1  0
 36 64  1  0
 36 65  1  0
 37 66  1  0
 37 67  1  0
 38 68  1  0
 38 69  1  0
 39 70  1  0
M  END
>  <pEC50>  (20) 
6.553

$$$$
27
     RDKit          3D

 74 79  0  0  0  0  0  0  0  0999 V2000
    7.0619    3.0621    1.5181 C   0  0  0  0  0  0  0  0  0  0  0  0
    6.7628    1.7269    2.2069 C   0  0  0  0  0  0  0  0  0  0  0  0
    6.7871    0.6640    1.2200 N   0  0  0  0  0  0  0  0  0  0  0  0
    7.8607   -0.0534    0.8655 C   0  0  0  0  0  0  0  0  0  0  0  0
    7.5106   -0.9731   -0.1008 C   0  0  0  0  0  0  0  0  0  0  0  0
    8.3825   -1.9415   -0.7511 C   0  0  0  0  0  0  0  0  0  0  0  0
    7.9455   -2.7213   -1.6135 O   0  0  0  0  0  0  0  0  0  0  0  0
    9.7153   -2.0092   -0.4183 O   0  0  0  0  0  0  0  0  0  0  0  0
    6.1557   -0.7916   -0.3321 C   0  0  0  0  0  0  0  0  0  0  0  0
    5.2673   -1.3994   -1.1651 C   0  0  0  0  0  0  0  0  0  0  0  0
    3.9341   -0.9840   -1.1699 C   0  0  0  0  0  0  0  0  0  0  0  0
    3.4909    0.0358   -0.3447 C   0  0  0  0  0  0  0  0  0  0  0  0
    2.1089    0.4601   -0.3521 N   0  0  0  0  0  0  0  0  0  0  0  0
    1.7481    1.5103    0.5352 C   0  0  0  0  0  0  0  0  0  0  0  0
    0.4247    2.1106    0.2212 C   0  0  0  0  0  0  0  0  0  0  0  0
   -0.6356    1.0242   -0.0410 C   0  0  0  0  0  0  0  0  0  0  0  0
   -0.5540    0.1992    1.0849 F   0  0  0  0  0  0  0  0  0  0  0  0
   -1.9383    1.7244   -0.1139 C   0  0  0  0  0  0  0  0  0  0  0  0
   -3.0546    0.9848   -0.3459 O   0  0  0  0  0  0  0  0  0  0  0  0
   -3.3472   -0.0016    0.5722 C   0  0  0  0  0  0  0  0  0  0  0  0
   -4.5740   -0.7415    0.2848 C   0  0  0  0  0  0  0  0  0  0  0  0
   -5.8704   -0.3485    0.4502 C   0  0  0  0  0  0  0  0  0  0  0  0
   -6.4231    0.8948    0.9379 C   0  0  0  0  0  0  0  0  0  0  0  0
   -5.7305    1.9253    1.4682 C   0  0  0  0  0  0  0  0  0  0  0  0
   -6.3564    3.0454    1.9683 C   0  0  0  0  0  0  0  0  0  0  0  0
   -7.7270    3.1819    1.9575 C   0  0  0  0  0  0  0  0  0  0  0  0
   -8.4502    2.1375    1.4173 C   0  0  0  0  0  0  0  0  0  0  0  0
   -7.8108    1.0197    0.9177 C   0  0  0  0  0  0  0  0  0  0  0  0
   -8.6627    0.0495    0.3933 O   0  0  0  0  0  0  0  0  0  0  0  0
   -9.1420    0.0875   -0.9280 C   0  0  0  0  0  0  0  0  0  0  0  0
   -9.9288   -1.0139   -1.1690 F   0  0  0  0  0  0  0  0  0  0  0  0
   -8.1649    0.2885   -1.8432 F   0  0  0  0  0  0  0  0  0  0  0  0
  -10.0179    1.1945   -0.9547 F   0  0  0  0  0  0  0  0  0  0  0  0
   -6.6248   -1.4210    0.0310 N   0  0  0  0  0  0  0  0  0  0  0  0
   -5.8774   -2.3898   -0.3587 O   0  0  0  0  0  0  0  0  0  0  0  0
   -4.6282   -2.0485   -0.2329 C   0  0  0  0  0  0  0  0  0  0  0  0
   -3.4117   -2.8537   -0.5616 C   0  0  0  0  0  0  0  0  0  0  0  0
   -2.8241   -3.7376    0.5026 C   0  0  0  0  0  0  0  0  0  0  0  0
   -3.6623   -4.3414   -0.5984 C   0  0  0  0  0  0  0  0  0  0  0  0
   -0.1912    0.3294   -1.2813 C   0  0  0  0  0  0  0  0  0  0  0  0
    1.2021   -0.1885   -1.2281 C   0  0  0  0  0  0  0  0  0  0  0  0
    4.4299    0.6169    0.4780 C   0  0  0  0  0  0  0  0  0  0  0  0
    5.7491    0.2294    0.5049 C   0  0  0  0  0  0  0  0  0  0  0  0
    8.1340    3.1561    1.2561 H   0  0  0  0  0  0  0  0  0  0  0  0
    6.7790    3.9132    2.1643 H   0  0  0  0  0  0  0  0  0  0  0  0
    6.4225    3.1379    0.6057 H   0  0  0  0  0  0  0  0  0  0  0  0
    5.7843    1.8471    2.6867 H   0  0  0  0  0  0  0  0  0  0  0  0
    7.5142    1.5159    2.9669 H   0  0  0  0  0  0  0  0  0  0  0  0
    8.8936    0.0180    1.2387 H   0  0  0  0  0  0  0  0  0  0  0  0
   10.2698   -2.8548   -0.4718 H   0  0  0  0  0  0  0  0  0  0  0  0
    5.6230   -2.1932   -1.8041 H   0  0  0  0  0  0  0  0  0  0  0  0
    3.2363   -1.4805   -1.8419 H   0  0  0  0  0  0  0  0  0  0  0  0
    1.8559    1.2197    1.6071 H   0  0  0  0  0  0  0  0  0  0  0  0
    2.5060    2.3419    0.3818 H   0  0  0  0  0  0  0  0  0  0  0  0
    0.5084    2.6628   -0.7355 H   0  0  0  0  0  0  0  0  0  0  0  0
    0.0964    2.7738    1.0519 H   0  0  0  0  0  0  0  0  0  0  0  0
   -2.0112    2.3710    0.8012 H   0  0  0  0  0  0  0  0  0  0  0  0
   -1.8750    2.4775   -0.9513 H   0  0  0  0  0  0  0  0  0  0  0  0
   -3.1905    0.2839    1.6262 H   0  0  0  0  0  0  0  0  0  0  0  0
   -2.4907   -0.7570    0.4171 H   0  0  0  0  0  0  0  0  0  0  0  0
   -4.6704    1.9177    1.5229 H   0  0  0  0  0  0  0  0  0  0  0  0
   -5.7688    3.8772    2.3982 H   0  0  0  0  0  0  0  0  0  0  0  0
   -8.2417    4.0563    2.3473 H   0  0  0  0  0  0  0  0  0  0  0  0
   -9.5443    2.2100    1.3911 H   0  0  0  0  0  0  0  0  0  0  0  0
   -2.7493   -2.4789   -1.3636 H   0  0  0  0  0  0  0  0  0  0  0  0
   -1.7459   -3.9403    0.4348 H   0  0  0  0  0  0  0  0  0  0  0  0
   -3.2978   -3.7276    1.5142 H   0  0  0  0  0  0  0  0  0  0  0  0
   -3.1413   -4.9589   -1.3598 H   0  0  0  0  0  0  0  0  0  0  0  0
   -4.6494   -4.7404   -0.3105 H   0  0  0  0  0  0  0  0  0  0  0  0
   -0.8805   -0.5502   -1.4456 H   0  0  0  0  0  0  0  0  0  0  0  0
   -0.2789    1.0543   -2.1182 H   0  0  0  0  0  0  0  0  0  0  0  0
    1.1703   -1.2734   -0.8940 H   0  0  0  0  0  0  0  0  0  0  0  0
    1.6759   -0.2405   -2.2520 H   0  0  0  0  0  0  0  0  0  0  0  0
    4.1420    1.4281    1.1555 H   0  0  0  0  0  0  0  0  0  0  0  0
  1  2  1  0
  2  3  1  0
  3  4  1  0
  4  5  2  0
  5  6  1  0
  6  7  2  0
  6  8  1  0
  5  9  1  0
  9 10  2  0
 10 11  1  0
 11 12  2  0
 12 13  1  0
 13 14  1  0
 14 15  1  0
 15 16  1  0
 16 17  1  0
 16 18  1  0
 18 19  1  0
 19 20  1  0
 20 21  1  0
 21 22  1  0
 22 23  1  0
 23 24  2  0
 24 25  1  0
 25 26  2  0
 26 27  1  0
 27 28  2  0
 28 29  1  0
 29 30  1  0
 30 31  1  0
 30 32  1  0
 30 33  1  0
 22 34  2  0
 34 35  1  0
 35 36  1  0
 36 37  1  0
 37 38  1  0
 38 39  1  0
 16 40  1  0
 40 41  1  0
 12 42  1  0
 42 43  2  0
 43  3  1  0
 43  9  1  0
 41 13  1  0
 36 21  2  0
 39 37  1  0
 28 23  1  0
  1 44  1  0
  1 45  1  0
  1 46  1  0
  2 47  1  0
  2 48  1  0
  4 49  1  0
  8 50  1  0
 10 51  1  0
 11 52  1  0
 14 53  1  0
 14 54  1  0
 15 55  1  0
 15 56  1  0
 18 57  1  0
 18 58  1  0
 20 59  1  0
 20 60  1  0
 24 61  1  0
 25 62  1  0
 26 63  1  0
 27 64  1  0
 37 65  1  0
 38 66  1  0
 38 67  1  0
 39 68  1  0
 39 69  1  0
 40 70  1  0
 40 71  1  0
 41 72  1  0
 41 73  1  0
 42 74  1  0
M  END
>  <pEC50>  (21) 
5.955

$$$$
28
     RDKit          3D

 63 68  0  0  0  0  0  0  0  0999 V2000
    7.9355   -0.5995    1.8820 O   0  0  0  0  0  0  0  0  0  0  0  0
    8.3835   -0.8605    0.7633 C   0  0  0  0  0  0  0  0  0  0  0  0
    9.7165   -1.1355    0.6423 O   0  0  0  0  0  0  0  0  0  0  0  0
    7.4544   -0.8676   -0.4147 C   0  0  0  0  0  0  0  0  0  0  0  0
    8.0771   -1.1780   -1.6410 C   0  0  0  0  0  0  0  0  0  0  0  0
    6.6656   -1.0890   -2.7848 S   0  0  0  0  0  0  0  0  0  0  0  0
    5.3945   -0.6527   -1.5408 C   0  0  0  0  0  0  0  0  0  0  0  0
    4.0683   -0.4190   -1.6555 C   0  0  0  0  0  0  0  0  0  0  0  0
    3.3044   -0.0960   -0.5201 C   0  0  0  0  0  0  0  0  0  0  0  0
    1.9158    0.1505   -0.6304 N   0  0  0  0  0  0  0  0  0  0  0  0
    1.2005    0.6053    0.5508 C   0  0  0  0  0  0  0  0  0  0  0  0
   -0.0707    1.2828    0.0701 C   0  0  0  0  0  0  0  0  0  0  0  0
   -0.8854    0.1749   -0.6299 C   0  0  0  0  0  0  0  0  0  0  0  0
   -0.8368   -0.8957    0.1963 F   0  0  0  0  0  0  0  0  0  0  0  0
   -2.2508    0.7619   -0.8732 C   0  0  0  0  0  0  0  0  0  0  0  0
   -2.9110    1.1310    0.2387 O   0  0  0  0  0  0  0  0  0  0  0  0
   -3.3649    0.2032    1.1220 C   0  0  0  0  0  0  0  0  0  0  0  0
   -4.4242   -0.6742    0.5747 C   0  0  0  0  0  0  0  0  0  0  0  0
   -5.7427   -0.2781    0.3414 C   0  0  0  0  0  0  0  0  0  0  0  0
   -6.3406    1.0266    0.5385 C   0  0  0  0  0  0  0  0  0  0  0  0
   -6.3654    1.6113    1.7778 C   0  0  0  0  0  0  0  0  0  0  0  0
   -6.9577    2.8686    1.9645 C   0  0  0  0  0  0  0  0  0  0  0  0
   -7.5252    3.5365    0.9033 C   0  0  0  0  0  0  0  0  0  0  0  0
   -7.5000    2.9437   -0.3486 C   0  0  0  0  0  0  0  0  0  0  0  0
   -6.9099    1.6943   -0.5288 C   0  0  0  0  0  0  0  0  0  0  0  0
   -6.9026    1.1402   -1.7702 F   0  0  0  0  0  0  0  0  0  0  0  0
   -6.4227   -1.3591   -0.1497 N   0  0  0  0  0  0  0  0  0  0  0  0
   -5.5889   -2.3295   -0.2093 O   0  0  0  0  0  0  0  0  0  0  0  0
   -4.3819   -1.9804    0.2095 C   0  0  0  0  0  0  0  0  0  0  0  0
   -3.2609   -2.9277    0.2302 C   0  0  0  0  0  0  0  0  0  0  0  0
   -2.5890   -3.1146   -1.1405 C   0  0  0  0  0  0  0  0  0  0  0  0
   -3.3472   -4.2320   -0.4743 C   0  0  0  0  0  0  0  0  0  0  0  0
   -0.1887   -0.1474   -1.9064 C   0  0  0  0  0  0  0  0  0  0  0  0
    1.2853   -0.0605   -1.8975 C   0  0  0  0  0  0  0  0  0  0  0  0
    4.0359   -0.0535    0.6403 C   0  0  0  0  0  0  0  0  0  0  0  0
    5.3729   -0.2908    0.7457 C   0  0  0  0  0  0  0  0  0  0  0  0
    6.1512   -0.6171   -0.3964 C   0  0  0  0  0  0  0  0  0  0  0  0
   10.3445   -1.2198    1.4447 H   0  0  0  0  0  0  0  0  0  0  0  0
    9.0432   -1.4045   -1.9096 H   0  0  0  0  0  0  0  0  0  0  0  0
    3.6116   -0.4823   -2.6251 H   0  0  0  0  0  0  0  0  0  0  0  0
    1.8208    1.3405    1.1421 H   0  0  0  0  0  0  0  0  0  0  0  0
    0.9188   -0.2909    1.1408 H   0  0  0  0  0  0  0  0  0  0  0  0
   -0.6354    1.7069    0.8995 H   0  0  0  0  0  0  0  0  0  0  0  0
    0.2294    2.0095   -0.7131 H   0  0  0  0  0  0  0  0  0  0  0  0
   -2.8505    0.1330   -1.5845 H   0  0  0  0  0  0  0  0  0  0  0  0
   -2.0571    1.7017   -1.4741 H   0  0  0  0  0  0  0  0  0  0  0  0
   -3.7222    0.7881    2.0270 H   0  0  0  0  0  0  0  0  0  0  0  0
   -2.5432   -0.4304    1.5795 H   0  0  0  0  0  0  0  0  0  0  0  0
   -5.9507    1.1501    2.6587 H   0  0  0  0  0  0  0  0  0  0  0  0
   -6.9856    3.3463    2.9327 H   0  0  0  0  0  0  0  0  0  0  0  0
   -7.9902    4.5243    1.0524 H   0  0  0  0  0  0  0  0  0  0  0  0
   -7.9564    3.4991   -1.1543 H   0  0  0  0  0  0  0  0  0  0  0  0
   -2.5453   -2.8227    1.0647 H   0  0  0  0  0  0  0  0  0  0  0  0
   -1.4825   -3.1512   -1.1465 H   0  0  0  0  0  0  0  0  0  0  0  0
   -3.0696   -2.6857   -2.0177 H   0  0  0  0  0  0  0  0  0  0  0  0
   -2.7084   -5.0322   -0.0666 H   0  0  0  0  0  0  0  0  0  0  0  0
   -4.3204   -4.5499   -0.9057 H   0  0  0  0  0  0  0  0  0  0  0  0
   -0.5572   -1.1242   -2.3434 H   0  0  0  0  0  0  0  0  0  0  0  0
   -0.5555    0.6056   -2.6661 H   0  0  0  0  0  0  0  0  0  0  0  0
    1.6994    0.6959   -2.6039 H   0  0  0  0  0  0  0  0  0  0  0  0
    1.6900   -1.0457   -2.2787 H   0  0  0  0  0  0  0  0  0  0  0  0
    3.4372    0.1981    1.5360 H   0  0  0  0  0  0  0  0  0  0  0  0
    5.7848   -0.2156    1.7345 H   0  0  0  0  0  0  0  0  0  0  0  0
  1  2  2  0
  2  3  1  0
  2  4  1  0
  4  5  2  0
  5  6  1  0
  6  7  1  0
  7  8  2  0
  8  9  1  0
  9 10  1  0
 10 11  1  0
 11 12  1  0
 12 13  1  0
 13 14  1  0
 13 15  1  0
 15 16  1  0
 16 17  1  0
 17 18  1  0
 18 19  1  0
 19 20  1  0
 20 21  2  0
 21 22  1  0
 22 23  2  0
 23 24  1  0
 24 25  2  0
 25 26  1  0
 19 27  2  0
 27 28  1  0
 28 29  1  0
 29 30  1  0
 30 31  1  0
 31 32  1  0
 13 33  1  0
 33 34  1  0
  9 35  2  0
 35 36  1  0
 36 37  2  0
 37  4  1  0
 37  7  1  0
 34 10  1  0
 29 18  2  0
 32 30  1  0
 25 20  1  0
  3 38  1  0
  5 39  1  0
  8 40  1  0
 11 41  1  0
 11 42  1  0
 12 43  1  0
 12 44  1  0
 15 45  1  0
 15 46  1  0
 17 47  1  0
 17 48  1  0
 21 49  1  0
 22 50  1  0
 23 51  1  0
 24 52  1  0
 30 53  1  0
 31 54  1  0
 31 55  1  0
 32 56  1  0
 32 57  1  0
 33 58  1  0
 33 59  1  0
 34 60  1  0
 34 61  1  0
 35 62  1  0
 36 63  1  0
M  END
>  <pEC50>  (22) 
5.206

$$$$
29
     RDKit          3D

 66 71  0  0  0  0  0  0  0  0999 V2000
    7.3689   -2.7651   -2.3700 O   0  0  0  0  0  0  0  0  0  0  0  0
    8.0460   -2.0618   -1.6000 C   0  0  0  0  0  0  0  0  0  0  0  0
    9.4136   -2.2459   -1.6476 O   0  0  0  0  0  0  0  0  0  0  0  0
    7.4241   -1.0620   -0.6638 C   0  0  0  0  0  0  0  0  0  0  0  0
    8.2911   -0.3312    0.1495 C   0  0  0  0  0  0  0  0  0  0  0  0
    7.1341    0.7214    1.0787 S   0  0  0  0  0  0  0  0  0  0  0  0
    5.6387    0.1009    0.3119 C   0  0  0  0  0  0  0  0  0  0  0  0
    4.3444    0.4475    0.5257 C   0  0  0  0  0  0  0  0  0  0  0  0
    3.3368   -0.1841   -0.2033 C   0  0  0  0  0  0  0  0  0  0  0  0
    1.9822    0.1757   -0.0044 N   0  0  0  0  0  0  0  0  0  0  0  0
    0.9279   -0.6531   -0.4835 C   0  0  0  0  0  0  0  0  0  0  0  0
   -0.1765    0.2408   -1.0642 C   0  0  0  0  0  0  0  0  0  0  0  0
   -0.6711    1.0782    0.1109 C   0  0  0  0  0  0  0  0  0  0  0  0
   -0.6852    0.3214    1.2487 F   0  0  0  0  0  0  0  0  0  0  0  0
   -1.9202    1.8058   -0.2065 C   0  0  0  0  0  0  0  0  0  0  0  0
   -2.9718    1.0143   -0.5691 O   0  0  0  0  0  0  0  0  0  0  0  0
   -3.3432    0.1354    0.3998 C   0  0  0  0  0  0  0  0  0  0  0  0
   -4.5358   -0.6772    0.0173 C   0  0  0  0  0  0  0  0  0  0  0  0
   -5.8512   -0.2376    0.0156 C   0  0  0  0  0  0  0  0  0  0  0  0
   -6.3977    1.0494    0.4089 C   0  0  0  0  0  0  0  0  0  0  0  0
   -6.0268    2.1911   -0.2363 C   0  0  0  0  0  0  0  0  0  0  0  0
   -6.5703    3.4258    0.1401 C   0  0  0  0  0  0  0  0  0  0  0  0
   -7.4808    3.5271    1.1546 C   0  0  0  0  0  0  0  0  0  0  0  0
   -7.8541    2.3705    1.8045 C   0  0  0  0  0  0  0  0  0  0  0  0
   -7.3145    1.1342    1.4331 C   0  0  0  0  0  0  0  0  0  0  0  0
   -7.7807   -0.0509    2.1926 C   0  0  0  0  0  0  0  0  0  0  0  0
   -8.6897    0.3012    3.1686 F   0  0  0  0  0  0  0  0  0  0  0  0
   -8.4214   -0.9769    1.3855 F   0  0  0  0  0  0  0  0  0  0  0  0
   -6.7497   -0.7209    2.8177 F   0  0  0  0  0  0  0  0  0  0  0  0
   -6.5586   -1.3236   -0.4228 N   0  0  0  0  0  0  0  0  0  0  0  0
   -5.7603   -2.3096   -0.6591 O   0  0  0  0  0  0  0  0  0  0  0  0
   -4.4942   -1.9715   -0.4045 C   0  0  0  0  0  0  0  0  0  0  0  0
   -3.3283   -2.9146   -0.5785 C   0  0  0  0  0  0  0  0  0  0  0  0
   -3.3946   -4.1868    0.2558 C   0  0  0  0  0  0  0  0  0  0  0  0
   -2.4487   -3.1255    0.6374 C   0  0  0  0  0  0  0  0  0  0  0  0
    0.4576    2.0972    0.3233 C   0  0  0  0  0  0  0  0  0  0  0  0
    1.7434    1.4262    0.7019 C   0  0  0  0  0  0  0  0  0  0  0  0
    3.7531   -1.1258   -1.0973 C   0  0  0  0  0  0  0  0  0  0  0  0
    5.0703   -1.4590   -1.2954 C   0  0  0  0  0  0  0  0  0  0  0  0
    6.1149   -0.8257   -0.5605 C   0  0  0  0  0  0  0  0  0  0  0  0
    9.8677   -2.6985   -2.4572 H   0  0  0  0  0  0  0  0  0  0  0  0
    9.3794   -0.3358    0.2540 H   0  0  0  0  0  0  0  0  0  0  0  0
    4.1305    1.1932    1.2483 H   0  0  0  0  0  0  0  0  0  0  0  0
    1.1864   -1.4470   -1.1696 H   0  0  0  0  0  0  0  0  0  0  0  0
    0.4097   -1.1700    0.3843 H   0  0  0  0  0  0  0  0  0  0  0  0
   -0.9879   -0.3536   -1.5177 H   0  0  0  0  0  0  0  0  0  0  0  0
    0.2815    0.9378   -1.7954 H   0  0  0  0  0  0  0  0  0  0  0  0
   -2.2417    2.3350    0.7417 H   0  0  0  0  0  0  0  0  0  0  0  0
   -1.6838    2.5903   -0.9703 H   0  0  0  0  0  0  0  0  0  0  0  0
   -3.6314    0.6707    1.3463 H   0  0  0  0  0  0  0  0  0  0  0  0
   -2.5353   -0.5990    0.5852 H   0  0  0  0  0  0  0  0  0  0  0  0
   -5.3225    2.1872   -1.0528 H   0  0  0  0  0  0  0  0  0  0  0  0
   -6.2711    4.3094   -0.3726 H   0  0  0  0  0  0  0  0  0  0  0  0
   -7.9092    4.4824    1.4571 H   0  0  0  0  0  0  0  0  0  0  0  0
   -8.5746    2.4504    2.6064 H   0  0  0  0  0  0  0  0  0  0  0  0
   -2.8418   -2.9302   -1.5586 H   0  0  0  0  0  0  0  0  0  0  0  0
   -4.3226   -4.3394    0.8771 H   0  0  0  0  0  0  0  0  0  0  0  0
   -3.0100   -5.1086   -0.1948 H   0  0  0  0  0  0  0  0  0  0  0  0
   -2.6425   -2.6513    1.5996 H   0  0  0  0  0  0  0  0  0  0  0  0
   -1.3528   -3.3245    0.4711 H   0  0  0  0  0  0  0  0  0  0  0  0
    0.1548    2.7638    1.1475 H   0  0  0  0  0  0  0  0  0  0  0  0
    0.5304    2.6854   -0.5968 H   0  0  0  0  0  0  0  0  0  0  0  0
    1.8352    1.2621    1.7796 H   0  0  0  0  0  0  0  0  0  0  0  0
    2.5562    2.1229    0.3970 H   0  0  0  0  0  0  0  0  0  0  0  0
    3.0127   -1.6579   -1.7078 H   0  0  0  0  0  0  0  0  0  0  0  0
    5.2567   -2.2174   -2.0301 H   0  0  0  0  0  0  0  0  0  0  0  0
  1  2  2  0
  2  3  1  0
  2  4  1  0
  4  5  2  0
  5  6  1  0
  6  7  1  0
  7  8  2  0
  8  9  1  0
  9 10  1  0
 10 11  1  0
 11 12  1  0
 12 13  1  0
 13 14  1  0
 13 15  1  0
 15 16  1  0
 16 17  1  0
 17 18  1  0
 18 19  1  0
 19 20  1  0
 20 21  2  0
 21 22  1  0
 22 23  2  0
 23 24  1  0
 24 25  2  0
 25 26  1  0
 26 27  1  0
 26 28  1  0
 26 29  1  0
 19 30  2  0
 30 31  1  0
 31 32  1  0
 32 33  1  0
 33 34  1  0
 34 35  1  0
 13 36  1  0
 36 37  1  0
  9 38  2  0
 38 39  1  0
 39 40  2  0
 40  4  1  0
 40  7  1  0
 37 10  1  0
 32 18  2  0
 35 33  1  0
 25 20  1  0
  3 41  1  0
  5 42  1  0
  8 43  1  0
 11 44  1  0
 11 45  1  0
 12 46  1  0
 12 47  1  0
 15 48  1  0
 15 49  1  0
 17 50  1  0
 17 51  1  0
 21 52  1  0
 22 53  1  0
 23 54  1  0
 24 55  1  0
 33 56  1  0
 34 57  1  0
 34 58  1  0
 35 59  1  0
 35 60  1  0
 36 61  1  0
 36 62  1  0
 37 63  1  0
 37 64  1  0
 38 65  1  0
 39 66  1  0
M  END
>  <pEC50>  (23) 
5.69

$$$$
30
     RDKit          3D

 67 72  0  0  0  0  0  0  0  0999 V2000
    7.5862   -2.6037   -2.2324 O   0  0  0  0  0  0  0  0  0  0  0  0
    8.1521   -2.0890   -1.2574 C   0  0  0  0  0  0  0  0  0  0  0  0
    9.4732   -2.4059   -1.0612 O   0  0  0  0  0  0  0  0  0  0  0  0
    7.4188   -1.1526   -0.3254 C   0  0  0  0  0  0  0  0  0  0  0  0
    8.1725   -0.6577    0.7406 C   0  0  0  0  0  0  0  0  0  0  0  0
    6.9416    0.3929    1.6016 S   0  0  0  0  0  0  0  0  0  0  0  0
    5.5753    0.0703    0.4721 C   0  0  0  0  0  0  0  0  0  0  0  0
    4.3076    0.5203    0.4714 C   0  0  0  0  0  0  0  0  0  0  0  0
    3.4017    0.1268   -0.5314 C   0  0  0  0  0  0  0  0  0  0  0  0
    2.0718    0.6145   -0.5197 N   0  0  0  0  0  0  0  0  0  0  0  0
    1.1049    0.0917   -1.4182 C   0  0  0  0  0  0  0  0  0  0  0  0
   -0.3305    0.1002   -0.8998 C   0  0  0  0  0  0  0  0  0  0  0  0
   -0.5686    0.8798    0.3127 C   0  0  0  0  0  0  0  0  0  0  0  0
   -0.2242    0.1005    1.4234 F   0  0  0  0  0  0  0  0  0  0  0  0
   -1.9425    1.4033    0.5189 C   0  0  0  0  0  0  0  0  0  0  0  0
   -3.0090    0.6140    0.6373 O   0  0  0  0  0  0  0  0  0  0  0  0
   -3.4319   -0.1104   -0.4148 C   0  0  0  0  0  0  0  0  0  0  0  0
   -4.6833   -0.8810   -0.0858 C   0  0  0  0  0  0  0  0  0  0  0  0
   -5.9362   -0.3311    0.0584 C   0  0  0  0  0  0  0  0  0  0  0  0
   -6.4135    1.0370   -0.0588 C   0  0  0  0  0  0  0  0  0  0  0  0
   -5.9807    2.0643    0.7454 C   0  0  0  0  0  0  0  0  0  0  0  0
   -6.5028    3.3532    0.6074 C   0  0  0  0  0  0  0  0  0  0  0  0
   -7.4655    3.6574   -0.3292 C   0  0  0  0  0  0  0  0  0  0  0  0
   -7.9051    2.6335   -1.1399 C   0  0  0  0  0  0  0  0  0  0  0  0
   -7.3932    1.3628   -1.0074 C   0  0  0  0  0  0  0  0  0  0  0  0
   -7.8233    0.3130   -1.8182 O   0  0  0  0  0  0  0  0  0  0  0  0
   -8.7962    0.4820   -2.8179 C   0  0  0  0  0  0  0  0  0  0  0  0
   -8.2752    1.4331   -3.6985 F   0  0  0  0  0  0  0  0  0  0  0  0
   -8.9982   -0.6951   -3.4868 F   0  0  0  0  0  0  0  0  0  0  0  0
   -9.9682    0.9779   -2.2632 F   0  0  0  0  0  0  0  0  0  0  0  0
   -6.7482   -1.3950    0.3475 N   0  0  0  0  0  0  0  0  0  0  0  0
   -6.0467   -2.4792    0.3737 O   0  0  0  0  0  0  0  0  0  0  0  0
   -4.7782   -2.2336    0.1164 C   0  0  0  0  0  0  0  0  0  0  0  0
   -3.6751   -3.2549    0.0570 C   0  0  0  0  0  0  0  0  0  0  0  0
   -3.6892   -4.3557   -0.9104 C   0  0  0  0  0  0  0  0  0  0  0  0
   -2.9177   -3.1826   -1.3156 C   0  0  0  0  0  0  0  0  0  0  0  0
    0.3358    2.1201    0.2784 C   0  0  0  0  0  0  0  0  0  0  0  0
    1.7663    1.6711    0.4446 C   0  0  0  0  0  0  0  0  0  0  0  0
    3.9390   -0.7245   -1.4585 C   0  0  0  0  0  0  0  0  0  0  0  0
    5.2399   -1.1813   -1.4506 C   0  0  0  0  0  0  0  0  0  0  0  0
    6.1402   -0.7791   -0.4366 C   0  0  0  0  0  0  0  0  0  0  0  0
   10.0327   -2.9184   -1.7388 H   0  0  0  0  0  0  0  0  0  0  0  0
    9.1835   -0.7894    1.0552 H   0  0  0  0  0  0  0  0  0  0  0  0
    3.9966    1.1899    1.2536 H   0  0  0  0  0  0  0  0  0  0  0  0
    1.3788   -0.9482   -1.7438 H   0  0  0  0  0  0  0  0  0  0  0  0
    1.1049    0.7014   -2.3449 H   0  0  0  0  0  0  0  0  0  0  0  0
   -0.4963   -0.9971   -0.6389 H   0  0  0  0  0  0  0  0  0  0  0  0
   -1.0323    0.3215   -1.7266 H   0  0  0  0  0  0  0  0  0  0  0  0
   -1.9316    2.0438    1.4919 H   0  0  0  0  0  0  0  0  0  0  0  0
   -2.1338    2.2595   -0.2336 H   0  0  0  0  0  0  0  0  0  0  0  0
   -3.6458    0.5096   -1.3203 H   0  0  0  0  0  0  0  0  0  0  0  0
   -2.6752   -0.8634   -0.6684 H   0  0  0  0  0  0  0  0  0  0  0  0
   -5.2291    1.8720    1.5052 H   0  0  0  0  0  0  0  0  0  0  0  0
   -6.1586    4.1545    1.2443 H   0  0  0  0  0  0  0  0  0  0  0  0
   -7.8649    4.6599   -0.4292 H   0  0  0  0  0  0  0  0  0  0  0  0
   -8.6732    2.8642   -1.8926 H   0  0  0  0  0  0  0  0  0  0  0  0
   -3.0123   -3.2730    0.9427 H   0  0  0  0  0  0  0  0  0  0  0  0
   -4.6371   -4.6003   -1.4253 H   0  0  0  0  0  0  0  0  0  0  0  0
   -3.0904   -5.2556   -0.6286 H   0  0  0  0  0  0  0  0  0  0  0  0
   -1.8259   -3.0908   -1.2531 H   0  0  0  0  0  0  0  0  0  0  0  0
   -3.3875   -2.5669   -2.1147 H   0  0  0  0  0  0  0  0  0  0  0  0
    0.2192    2.5743   -0.7016 H   0  0  0  0  0  0  0  0  0  0  0  0
    0.0407    2.7569    1.1256 H   0  0  0  0  0  0  0  0  0  0  0  0
    1.9771    1.2563    1.4493 H   0  0  0  0  0  0  0  0  0  0  0  0
    2.4387    2.5151    0.2133 H   0  0  0  0  0  0  0  0  0  0  0  0
    3.2688   -1.0550   -2.2708 H   0  0  0  0  0  0  0  0  0  0  0  0
    5.5237   -1.8527   -2.2520 H   0  0  0  0  0  0  0  0  0  0  0  0
  1  2  2  0
  2  3  1  0
  2  4  1  0
  4  5  2  0
  5  6  1  0
  6  7  1  0
  7  8  2  0
  8  9  1  0
  9 10  1  0
 10 11  1  0
 11 12  1  0
 12 13  1  0
 13 14  1  0
 13 15  1  0
 15 16  1  0
 16 17  1  0
 17 18  1  0
 18 19  1  0
 19 20  1  0
 20 21  2  0
 21 22  1  0
 22 23  2  0
 23 24  1  0
 24 25  2  0
 25 26  1  0
 26 27  1  0
 27 28  1  0
 27 29  1  0
 27 30  1  0
 19 31  2  0
 31 32  1  0
 32 33  1  0
 33 34  1  0
 34 35  1  0
 35 36  1  0
 13 37  1  0
 37 38  1  0
  9 39  2  0
 39 40  1  0
 40 41  2  0
 41  4  1  0
 41  7  1  0
 38 10  1  0
 33 18  2  0
 36 34  1  0
 25 20  1  0
  3 42  1  0
  5 43  1  0
  8 44  1  0
 11 45  1  0
 11 46  1  0
 12 47  1  0
 12 48  1  0
 15 49  1  0
 15 50  1  0
 17 51  1  0
 17 52  1  0
 21 53  1  0
 22 54  1  0
 23 55  1  0
 24 56  1  0
 34 57  1  0
 35 58  1  0
 35 59  1  0
 36 60  1  0
 36 61  1  0
 37 62  1  0
 37 63  1  0
 38 64  1  0
 38 65  1  0
 39 66  1  0
 40 67  1  0
M  END
>  <pEC50>  (24) 
5.674

$$$$
31
     RDKit          3D

 67 72  0  0  0  0  0  0  0  0999 V2000
    9.5367   -1.9376   -1.4987 O   0  0  0  0  0  0  0  0  0  0  0  0
    8.3179   -1.7102   -1.6213 C   0  0  0  0  0  0  0  0  0  0  0  0
    7.7133   -2.1519   -2.7739 O   0  0  0  0  0  0  0  0  0  0  0  0
    7.5492   -0.9803   -0.5441 C   0  0  0  0  0  0  0  0  0  0  0  0
    8.3076   -0.6034    0.5547 C   0  0  0  0  0  0  0  0  0  0  0  0
    7.0342    0.2327    1.6044 S   0  0  0  0  0  0  0  0  0  0  0  0
    5.6629   -0.0204    0.4619 C   0  0  0  0  0  0  0  0  0  0  0  0
    4.3294    0.3448    0.5546 C   0  0  0  0  0  0  0  0  0  0  0  0
    3.4681    0.0269   -0.4772 C   0  0  0  0  0  0  0  0  0  0  0  0
    2.1130    0.4037   -0.3809 N   0  0  0  0  0  0  0  0  0  0  0  0
    1.6333    1.1926    0.7407 C   0  0  0  0  0  0  0  0  0  0  0  0
    0.4317    1.9936    0.2204 C   0  0  0  0  0  0  0  0  0  0  0  0
   -0.6993    0.9564    0.1117 C   0  0  0  0  0  0  0  0  0  0  0  0
   -0.8476    0.5048    1.4328 F   0  0  0  0  0  0  0  0  0  0  0  0
   -1.9579    1.5994   -0.3726 C   0  0  0  0  0  0  0  0  0  0  0  0
   -3.0380    0.7700   -0.5256 O   0  0  0  0  0  0  0  0  0  0  0  0
   -3.4929    0.1037    0.5710 C   0  0  0  0  0  0  0  0  0  0  0  0
   -4.6771   -0.7187    0.2538 C   0  0  0  0  0  0  0  0  0  0  0  0
   -5.9774   -0.3123    0.1212 C   0  0  0  0  0  0  0  0  0  0  0  0
   -6.5617    0.9978    0.2875 C   0  0  0  0  0  0  0  0  0  0  0  0
   -7.6944    1.1019    1.1081 C   0  0  0  0  0  0  0  0  0  0  0  0
   -8.3239    2.3079    1.3125 C   0  0  0  0  0  0  0  0  0  0  0  0
   -7.8449    3.4516    0.7053 C   0  0  0  0  0  0  0  0  0  0  0  0
   -6.7357    3.4006   -0.1097 C   0  0  0  0  0  0  0  0  0  0  0  0
   -6.2433    4.5495   -0.7280 O   0  0  0  0  0  0  0  0  0  0  0  0
   -6.7640    4.8539   -2.0097 C   0  0  0  0  0  0  0  0  0  0  0  0
   -8.1458    5.0424   -1.9656 F   0  0  0  0  0  0  0  0  0  0  0  0
   -6.2305    6.0199   -2.5141 F   0  0  0  0  0  0  0  0  0  0  0  0
   -6.4847    3.8430   -2.9190 F   0  0  0  0  0  0  0  0  0  0  0  0
   -6.1348    2.1658   -0.2869 C   0  0  0  0  0  0  0  0  0  0  0  0
   -6.6602   -1.4607   -0.1834 N   0  0  0  0  0  0  0  0  0  0  0  0
   -5.8464   -2.4531   -0.2275 O   0  0  0  0  0  0  0  0  0  0  0  0
   -4.6232   -2.0865    0.0265 C   0  0  0  0  0  0  0  0  0  0  0  0
   -3.4451   -2.9650    0.0588 C   0  0  0  0  0  0  0  0  0  0  0  0
   -3.0561   -3.6206    1.3301 C   0  0  0  0  0  0  0  0  0  0  0  0
   -3.5968   -4.4330    0.1521 C   0  0  0  0  0  0  0  0  0  0  0  0
   -0.2471   -0.1687   -0.7533 C   0  0  0  0  0  0  0  0  0  0  0  0
    1.1195    0.0359   -1.3739 C   0  0  0  0  0  0  0  0  0  0  0  0
    4.0274   -0.6439   -1.5366 C   0  0  0  0  0  0  0  0  0  0  0  0
    5.3472   -1.0034   -1.6244 C   0  0  0  0  0  0  0  0  0  0  0  0
    6.2452   -0.6812   -0.5670 C   0  0  0  0  0  0  0  0  0  0  0  0
    8.1839   -2.2377   -3.6753 H   0  0  0  0  0  0  0  0  0  0  0  0
    9.3076   -0.7000    0.8341 H   0  0  0  0  0  0  0  0  0  0  0  0
    4.0542    0.8658    1.4555 H   0  0  0  0  0  0  0  0  0  0  0  0
    2.3753    1.9360    1.0971 H   0  0  0  0  0  0  0  0  0  0  0  0
    1.3241    0.5833    1.5982 H   0  0  0  0  0  0  0  0  0  0  0  0
    0.7043    2.3841   -0.7795 H   0  0  0  0  0  0  0  0  0  0  0  0
    0.1657    2.8165    0.8871 H   0  0  0  0  0  0  0  0  0  0  0  0
   -1.7159    1.9871   -1.4113 H   0  0  0  0  0  0  0  0  0  0  0  0
   -2.2228    2.5125    0.2187 H   0  0  0  0  0  0  0  0  0  0  0  0
   -3.7579    0.7994    1.4248 H   0  0  0  0  0  0  0  0  0  0  0  0
   -2.7362   -0.5864    1.0192 H   0  0  0  0  0  0  0  0  0  0  0  0
   -8.1070    0.2192    1.6092 H   0  0  0  0  0  0  0  0  0  0  0  0
   -9.2027    2.3845    1.9500 H   0  0  0  0  0  0  0  0  0  0  0  0
   -8.3180    4.4169    0.8461 H   0  0  0  0  0  0  0  0  0  0  0  0
   -5.2862    2.1349   -0.9249 H   0  0  0  0  0  0  0  0  0  0  0  0
   -2.5774   -2.6294   -0.5816 H   0  0  0  0  0  0  0  0  0  0  0  0
   -1.9822   -3.7173    1.5826 H   0  0  0  0  0  0  0  0  0  0  0  0
   -3.7137   -3.5949    2.2180 H   0  0  0  0  0  0  0  0  0  0  0  0
   -4.5961   -4.9143    0.2824 H   0  0  0  0  0  0  0  0  0  0  0  0
   -2.8919   -5.0895   -0.3986 H   0  0  0  0  0  0  0  0  0  0  0  0
   -0.9519   -0.3325   -1.6027 H   0  0  0  0  0  0  0  0  0  0  0  0
   -0.2059   -1.1532   -0.2104 H   0  0  0  0  0  0  0  0  0  0  0  0
    1.1228    0.8165   -2.1584 H   0  0  0  0  0  0  0  0  0  0  0  0
    1.3661   -0.9269   -1.8699 H   0  0  0  0  0  0  0  0  0  0  0  0
    3.3282   -0.8875   -2.3490 H   0  0  0  0  0  0  0  0  0  0  0  0
    5.6402   -1.5236   -2.5121 H   0  0  0  0  0  0  0  0  0  0  0  0
  1  2  2  0
  2  3  1  0
  2  4  1  0
  4  5  2  0
  5  6  1  0
  6  7  1  0
  7  8  2  0
  8  9  1  0
  9 10  1  0
 10 11  1  0
 11 12  1  0
 12 13  1  0
 13 14  1  0
 13 15  1  0
 15 16  1  0
 16 17  1  0
 17 18  1  0
 18 19  1  0
 19 20  1  0
 20 21  2  0
 21 22  1  0
 22 23  2  0
 23 24  1  0
 24 25  1  0
 25 26  1  0
 26 27  1  0
 26 28  1  0
 26 29  1  0
 24 30  2  0
 19 31  2  0
 31 32  1  0
 32 33  1  0
 33 34  1  0
 34 35  1  0
 35 36  1  0
 13 37  1  0
 37 38  1  0
  9 39  2  0
 39 40  1  0
 40 41  2  0
 41  4  1  0
 41  7  1  0
 38 10  1  0
 33 18  2  0
 36 34  1  0
 30 20  1  0
  3 42  1  0
  5 43  1  0
  8 44  1  0
 11 45  1  0
 11 46  1  0
 12 47  1  0
 12 48  1  0
 15 49  1  0
 15 50  1  0
 17 51  1  0
 17 52  1  0
 21 53  1  0
 22 54  1  0
 23 55  1  0
 30 56  1  0
 34 57  1  0
 35 58  1  0
 35 59  1  0
 36 60  1  0
 36 61  1  0
 37 62  1  0
 37 63  1  0
 38 64  1  0
 38 65  1  0
 39 66  1  0
 40 67  1  0
M  END
>  <pEC50>  (25) 
5.408

$$$$
32
     RDKit          3D

 62 67  0  0  0  0  0  0  0  0999 V2000
    9.8745   -1.3908    0.3938 O   0  0  0  0  0  0  0  0  0  0  0  0
    9.1230   -1.3442    1.3977 C   0  0  0  0  0  0  0  0  0  0  0  0
    9.6565   -1.6265    2.6444 O   0  0  0  0  0  0  0  0  0  0  0  0
    7.7368   -1.0004    1.2251 C   0  0  0  0  0  0  0  0  0  0  0  0
    6.8943   -0.9426    2.2946 C   0  0  0  0  0  0  0  0  0  0  0  0
    5.5639   -0.6220    2.2083 C   0  0  0  0  0  0  0  0  0  0  0  0
    4.8661   -0.6103    3.3764 F   0  0  0  0  0  0  0  0  0  0  0  0
    4.9771   -0.3271    0.9827 C   0  0  0  0  0  0  0  0  0  0  0  0
    3.7534   -0.0046    0.6987 N   0  0  0  0  0  0  0  0  0  0  0  0
    3.2344    0.2519   -0.3420 C   0  0  0  0  0  0  0  0  0  0  0  0
    2.0054    0.6182   -0.9512 N   0  0  0  0  0  0  0  0  0  0  0  0
    1.0551   -0.3770   -1.4668 C   0  0  0  0  0  0  0  0  0  0  0  0
   -0.3096    0.2791   -1.5161 C   0  0  0  0  0  0  0  0  0  0  0  0
   -0.5609    1.0899   -0.2571 C   0  0  0  0  0  0  0  0  0  0  0  0
   -0.4209    0.2958    0.8482 F   0  0  0  0  0  0  0  0  0  0  0  0
   -1.9330    1.6735   -0.3648 C   0  0  0  0  0  0  0  0  0  0  0  0
   -2.9830    0.8249   -0.4678 O   0  0  0  0  0  0  0  0  0  0  0  0
   -3.2709    0.0038    0.6007 C   0  0  0  0  0  0  0  0  0  0  0  0
   -4.4631   -0.8370    0.3551 C   0  0  0  0  0  0  0  0  0  0  0  0
   -5.7834   -0.3720    0.3319 C   0  0  0  0  0  0  0  0  0  0  0  0
   -6.1929    0.9938    0.5367 C   0  0  0  0  0  0  0  0  0  0  0  0
   -6.2831    1.8300   -0.5488 C   0  0  0  0  0  0  0  0  0  0  0  0
   -5.9948    1.4118   -1.8169 F   0  0  0  0  0  0  0  0  0  0  0  0
   -6.6755    3.1470   -0.3917 C   0  0  0  0  0  0  0  0  0  0  0  0
   -6.9698    3.5838    0.8834 C   0  0  0  0  0  0  0  0  0  0  0  0
   -6.8805    2.7505    1.9702 C   0  0  0  0  0  0  0  0  0  0  0  0
   -6.4891    1.4439    1.7992 C   0  0  0  0  0  0  0  0  0  0  0  0
   -6.3824    0.3943    3.2085 Cl  0  0  0  0  0  0  0  0  0  0  0  0
   -6.5139   -1.4410    0.0897 N   0  0  0  0  0  0  0  0  0  0  0  0
   -5.7775   -2.4611   -0.0283 O   0  0  0  0  0  0  0  0  0  0  0  0
   -4.4713   -2.1797    0.1236 C   0  0  0  0  0  0  0  0  0  0  0  0
   -3.4521   -3.2022    0.0309 C   0  0  0  0  0  0  0  0  0  0  0  0
   -2.8371   -3.3445   -1.3895 C   0  0  0  0  0  0  0  0  0  0  0  0
   -2.0340   -3.1038   -0.1227 C   0  0  0  0  0  0  0  0  0  0  0  0
    0.4184    2.2604   -0.1931 C   0  0  0  0  0  0  0  0  0  0  0  0
    1.6299    2.0058   -1.0920 C   0  0  0  0  0  0  0  0  0  0  0  0
    4.7533    0.0433   -1.4673 S   0  0  0  0  0  0  0  0  0  0  0  0
    5.8509   -0.3881   -0.1190 C   0  0  0  0  0  0  0  0  0  0  0  0
    7.1701   -0.7085   -0.0142 C   0  0  0  0  0  0  0  0  0  0  0  0
   10.5339   -2.1092    2.7787 H   0  0  0  0  0  0  0  0  0  0  0  0
    7.3391   -1.1738    3.2845 H   0  0  0  0  0  0  0  0  0  0  0  0
    1.3496   -0.6478   -2.5035 H   0  0  0  0  0  0  0  0  0  0  0  0
    1.0480   -1.2877   -0.8413 H   0  0  0  0  0  0  0  0  0  0  0  0
   -1.0722   -0.4983   -1.5885 H   0  0  0  0  0  0  0  0  0  0  0  0
   -0.4234    0.9175   -2.4216 H   0  0  0  0  0  0  0  0  0  0  0  0
   -1.9555    2.4002   -1.2182 H   0  0  0  0  0  0  0  0  0  0  0  0
   -2.1048    2.3562    0.5348 H   0  0  0  0  0  0  0  0  0  0  0  0
   -2.4537   -0.5175    1.0768 H   0  0  0  0  0  0  0  0  0  0  0  0
   -3.6101    0.7395    1.4050 H   0  0  0  0  0  0  0  0  0  0  0  0
   -6.7605    3.8441   -1.2252 H   0  0  0  0  0  0  0  0  0  0  0  0
   -7.2754    4.6172    0.9872 H   0  0  0  0  0  0  0  0  0  0  0  0
   -7.1202    3.1279    2.9638 H   0  0  0  0  0  0  0  0  0  0  0  0
   -3.8110   -4.2208    0.4090 H   0  0  0  0  0  0  0  0  0  0  0  0
   -2.9964   -2.4922   -2.0827 H   0  0  0  0  0  0  0  0  0  0  0  0
   -2.8582   -4.3159   -1.8768 H   0  0  0  0  0  0  0  0  0  0  0  0
   -1.3749   -2.2480   -0.0882 H   0  0  0  0  0  0  0  0  0  0  0  0
   -1.4258   -4.0346    0.1261 H   0  0  0  0  0  0  0  0  0  0  0  0
    0.7985    2.3326    0.8374 H   0  0  0  0  0  0  0  0  0  0  0  0
   -0.0444    3.1955   -0.5469 H   0  0  0  0  0  0  0  0  0  0  0  0
    2.4057    2.7021   -0.7767 H   0  0  0  0  0  0  0  0  0  0  0  0
    1.3526    2.1481   -2.1648 H   0  0  0  0  0  0  0  0  0  0  0  0
    7.7584   -0.7313   -0.8980 H   0  0  0  0  0  0  0  0  0  0  0  0
  1  2  2  0
  2  3  1  0
  2  4  1  0
  4  5  2  0
  5  6  1  0
  6  7  1  0
  6  8  2  0
  8  9  1  0
  9 10  2  0
 10 11  1  0
 11 12  1  0
 12 13  1  0
 13 14  1  0
 14 15  1  0
 14 16  1  0
 16 17  1  0
 17 18  1  0
 18 19  1  0
 19 20  1  0
 20 21  1  0
 21 22  2  0
 22 23  1  0
 22 24  1  0
 24 25  2  0
 25 26  1  0
 26 27  2  0
 27 28  1  0
 20 29  2  0
 29 30  1  0
 30 31  1  0
 31 32  1  0
 32 33  1  0
 33 34  1  0
 14 35  1  0
 35 36  1  0
 10 37  1  0
 37 38  1  0
 38 39  2  0
 39  4  1  0
 38  8  1  0
 36 11  1  0
 31 19  2  0
 34 32  1  0
 27 21  1  0
  3 40  1  0
  5 41  1  0
 12 42  1  0
 12 43  1  0
 13 44  1  0
 13 45  1  0
 16 46  1  0
 16 47  1  0
 18 48  1  0
 18 49  1  0
 24 50  1  0
 25 51  1  0
 26 52  1  0
 32 53  1  0
 33 54  1  0
 33 55  1  0
 34 56  1  0
 34 57  1  0
 35 58  1  0
 35 59  1  0
 36 60  1  0
 36 61  1  0
 39 62  1  0
M  END
>  <pEC50>  (26) 
6.444

$$$$
33
     RDKit          3D

 62 67  0  0  0  0  0  0  0  0999 V2000
   10.5232   -1.3837    0.8535 O   0  0  0  0  0  0  0  0  0  0  0  0
    9.5349   -1.5835    0.0870 C   0  0  0  0  0  0  0  0  0  0  0  0
    9.7647   -2.3987   -0.9952 O   0  0  0  0  0  0  0  0  0  0  0  0
    8.2446   -1.0002    0.3196 C   0  0  0  0  0  0  0  0  0  0  0  0
    7.9448   -0.1770    1.3706 C   0  0  0  0  0  0  0  0  0  0  0  0
    6.7199    0.3894    1.6050 C   0  0  0  0  0  0  0  0  0  0  0  0
    6.5719    1.1828    2.6864 F   0  0  0  0  0  0  0  0  0  0  0  0
    5.6539    0.1237    0.7087 C   0  0  0  0  0  0  0  0  0  0  0  0
    4.4407    0.5599    0.7570 N   0  0  0  0  0  0  0  0  0  0  0  0
    3.5091    0.3614    0.0200 C   0  0  0  0  0  0  0  0  0  0  0  0
    2.1530    0.6764   -0.1926 N   0  0  0  0  0  0  0  0  0  0  0  0
    1.3546    0.1588   -1.2747 C   0  0  0  0  0  0  0  0  0  0  0  0
   -0.0878   -0.0655   -0.9280 C   0  0  0  0  0  0  0  0  0  0  0  0
   -0.7302    0.9869   -0.0951 C   0  0  0  0  0  0  0  0  0  0  0  0
   -0.8618    0.5494    1.2085 F   0  0  0  0  0  0  0  0  0  0  0  0
   -2.0444    1.4899   -0.5985 C   0  0  0  0  0  0  0  0  0  0  0  0
   -3.0426    0.5848   -0.7393 O   0  0  0  0  0  0  0  0  0  0  0  0
   -3.3976   -0.0625    0.3833 C   0  0  0  0  0  0  0  0  0  0  0  0
   -4.6108   -0.9226    0.2841 C   0  0  0  0  0  0  0  0  0  0  0  0
   -5.8933   -0.4239    0.3062 C   0  0  0  0  0  0  0  0  0  0  0  0
   -6.3122    0.9603    0.4228 C   0  0  0  0  0  0  0  0  0  0  0  0
   -5.9856    1.9141   -0.5206 C   0  0  0  0  0  0  0  0  0  0  0  0
   -6.4324    3.2186   -0.3620 C   0  0  0  0  0  0  0  0  0  0  0  0
   -7.1987    3.5989    0.7146 C   0  0  0  0  0  0  0  0  0  0  0  0
   -7.5094    2.6145    1.6439 C   0  0  0  0  0  0  0  0  0  0  0  0
   -7.0814    1.3179    1.5127 C   0  0  0  0  0  0  0  0  0  0  0  0
   -7.3831    0.3541    2.4198 F   0  0  0  0  0  0  0  0  0  0  0  0
   -6.6945   -1.5012    0.2317 N   0  0  0  0  0  0  0  0  0  0  0  0
   -5.9849   -2.5844    0.1675 O   0  0  0  0  0  0  0  0  0  0  0  0
   -4.6752   -2.2818    0.1959 C   0  0  0  0  0  0  0  0  0  0  0  0
   -3.5664   -3.2606    0.1380 C   0  0  0  0  0  0  0  0  0  0  0  0
   -3.3498   -3.9510   -1.2515 C   0  0  0  0  0  0  0  0  0  0  0  0
   -2.3620   -2.9564   -0.7609 C   0  0  0  0  0  0  0  0  0  0  0  0
    0.2632    2.1670   -0.0099 C   0  0  0  0  0  0  0  0  0  0  0  0
    1.4921    1.5897    0.7154 C   0  0  0  0  0  0  0  0  0  0  0  0
    4.3814   -0.7768   -1.2114 S   0  0  0  0  0  0  0  0  0  0  0  0
    5.9727   -0.7116   -0.3500 C   0  0  0  0  0  0  0  0  0  0  0  0
    7.2069   -1.2761   -0.5775 C   0  0  0  0  0  0  0  0  0  0  0  0
   10.6532   -2.8624   -1.1649 H   0  0  0  0  0  0  0  0  0  0  0  0
    8.7545    0.0409    2.0754 H   0  0  0  0  0  0  0  0  0  0  0  0
    1.7853   -0.8650   -1.4873 H   0  0  0  0  0  0  0  0  0  0  0  0
    1.5078    0.7866   -2.1770 H   0  0  0  0  0  0  0  0  0  0  0  0
   -0.2198   -1.0794   -0.4687 H   0  0  0  0  0  0  0  0  0  0  0  0
   -0.6512   -0.1090   -1.9073 H   0  0  0  0  0  0  0  0  0  0  0  0
   -1.8854    2.0885   -1.5624 H   0  0  0  0  0  0  0  0  0  0  0  0
   -2.3386    2.3278    0.1305 H   0  0  0  0  0  0  0  0  0  0  0  0
   -2.5244   -0.7196    0.6983 H   0  0  0  0  0  0  0  0  0  0  0  0
   -3.5622    0.6664    1.2163 H   0  0  0  0  0  0  0  0  0  0  0  0
   -5.3932    1.6685   -1.3972 H   0  0  0  0  0  0  0  0  0  0  0  0
   -6.1931    3.9885   -1.0830 H   0  0  0  0  0  0  0  0  0  0  0  0
   -7.5594    4.6296    0.8525 H   0  0  0  0  0  0  0  0  0  0  0  0
   -8.1176    2.8666    2.5185 H   0  0  0  0  0  0  0  0  0  0  0  0
   -3.3990   -3.9278    1.0118 H   0  0  0  0  0  0  0  0  0  0  0  0
   -4.1168   -3.6696   -2.0196 H   0  0  0  0  0  0  0  0  0  0  0  0
   -3.1080   -5.0217   -1.2223 H   0  0  0  0  0  0  0  0  0  0  0  0
   -1.3819   -3.3831   -0.4552 H   0  0  0  0  0  0  0  0  0  0  0  0
   -2.3588   -1.9792   -1.2917 H   0  0  0  0  0  0  0  0  0  0  0  0
   -0.1664    2.9465    0.6132 H   0  0  0  0  0  0  0  0  0  0  0  0
    0.5786    2.5072   -0.9925 H   0  0  0  0  0  0  0  0  0  0  0  0
    2.1775    2.3865    1.0478 H   0  0  0  0  0  0  0  0  0  0  0  0
    1.0842    1.0229    1.5783 H   0  0  0  0  0  0  0  0  0  0  0  0
    7.3648   -1.9204   -1.4371 H   0  0  0  0  0  0  0  0  0  0  0  0
  1  2  2  0
  2  3  1  0
  2  4  1  0
  4  5  2  0
  5  6  1  0
  6  7  1  0
  6  8  2  0
  8  9  1  0
  9 10  2  0
 10 11  1  0
 11 12  1  0
 12 13  1  0
 13 14  1  0
 14 15  1  0
 14 16  1  0
 16 17  1  0
 17 18  1  0
 18 19  1  0
 19 20  1  0
 20 21  1  0
 21 22  2  0
 22 23  1  0
 23 24  2  0
 24 25  1  0
 25 26  2  0
 26 27  1  0
 20 28  2  0
 28 29  1  0
 29 30  1  0
 30 31  1  0
 31 32  1  0
 32 33  1  0
 14 34  1  0
 34 35  1  0
 10 36  1  0
 36 37  1  0
 37 38  2  0
 38  4  1  0
 37  8  1  0
 35 11  1  0
 30 19  2  0
 33 31  1  0
 26 21  1  0
  3 39  1  0
  5 40  1  0
 12 41  1  0
 12 42  1  0
 13 43  1  0
 13 44  1  0
 16 45  1  0
 16 46  1  0
 18 47  1  0
 18 48  1  0
 22 49  1  0
 23 50  1  0
 24 51  1  0
 25 52  1  0
 31 53  1  0
 32 54  1  0
 32 55  1  0
 33 56  1  0
 33 57  1  0
 34 58  1  0
 34 59  1  0
 35 60  1  0
 35 61  1  0
 38 62  1  0
M  END
>  <pEC50>  (27) 
5.331

$$$$
34
     RDKit          3D

 62 67  0  0  0  0  0  0  0  0999 V2000
   10.5256   -1.3790    0.7152 O   0  0  0  0  0  0  0  0  0  0  0  0
    9.5311   -1.5745   -0.0262 C   0  0  0  0  0  0  0  0  0  0  0  0
    9.7221   -2.3998   -1.1432 O   0  0  0  0  0  0  0  0  0  0  0  0
    8.2483   -0.9885    0.2410 C   0  0  0  0  0  0  0  0  0  0  0  0
    7.9694   -0.1734    1.3068 C   0  0  0  0  0  0  0  0  0  0  0  0
    6.7486    0.3938    1.5755 C   0  0  0  0  0  0  0  0  0  0  0  0
    6.6363    1.1705    2.6610 F   0  0  0  0  0  0  0  0  0  0  0  0
    5.6687    0.1327    0.6956 C   0  0  0  0  0  0  0  0  0  0  0  0
    4.4555    0.5749    0.7858 N   0  0  0  0  0  0  0  0  0  0  0  0
    3.5203    0.3650    0.0487 C   0  0  0  0  0  0  0  0  0  0  0  0
    2.1530    0.6644   -0.1414 N   0  0  0  0  0  0  0  0  0  0  0  0
    1.3555    0.1694   -1.2365 C   0  0  0  0  0  0  0  0  0  0  0  0
   -0.0809   -0.0919   -0.8715 C   0  0  0  0  0  0  0  0  0  0  0  0
   -0.7115    0.9346    0.0047 C   0  0  0  0  0  0  0  0  0  0  0  0
   -0.7592    0.4818    1.3167 F   0  0  0  0  0  0  0  0  0  0  0  0
   -2.0098    1.4888   -0.4898 C   0  0  0  0  0  0  0  0  0  0  0  0
   -3.0338    0.6162   -0.6834 O   0  0  0  0  0  0  0  0  0  0  0  0
   -3.4125   -0.0449    0.4285 C   0  0  0  0  0  0  0  0  0  0  0  0
   -4.6246   -0.8993    0.3001 C   0  0  0  0  0  0  0  0  0  0  0  0
   -5.9084   -0.4058    0.2910 C   0  0  0  0  0  0  0  0  0  0  0  0
   -6.3338    0.9770    0.3955 C   0  0  0  0  0  0  0  0  0  0  0  0
   -5.9896    1.9095   -0.5585 C   0  0  0  0  0  0  0  0  0  0  0  0
   -6.4170    3.2183   -0.4616 C   0  0  0  0  0  0  0  0  0  0  0  0
   -7.2045    3.6020    0.6099 C   0  0  0  0  0  0  0  0  0  0  0  0
   -7.5461    2.6643    1.5609 C   0  0  0  0  0  0  0  0  0  0  0  0
   -7.1225    1.3703    1.4643 C   0  0  0  0  0  0  0  0  0  0  0  0
   -7.5345    0.1496    2.6514 Cl  0  0  0  0  0  0  0  0  0  0  0  0
   -6.7016   -1.4877    0.2002 N   0  0  0  0  0  0  0  0  0  0  0  0
   -5.9936   -2.5655    0.1548 O   0  0  0  0  0  0  0  0  0  0  0  0
   -4.6826   -2.2632    0.2128 C   0  0  0  0  0  0  0  0  0  0  0  0
   -3.5792   -3.2464    0.1821 C   0  0  0  0  0  0  0  0  0  0  0  0
   -3.2988   -3.8844   -1.1967 C   0  0  0  0  0  0  0  0  0  0  0  0
   -2.3486   -2.9104   -0.6575 C   0  0  0  0  0  0  0  0  0  0  0  0
    0.3007    2.1125    0.0827 C   0  0  0  0  0  0  0  0  0  0  0  0
    1.5120    1.5229    0.8202 C   0  0  0  0  0  0  0  0  0  0  0  0
    4.3690   -0.7672   -1.2198 S   0  0  0  0  0  0  0  0  0  0  0  0
    5.9629   -0.6850   -0.3670 C   0  0  0  0  0  0  0  0  0  0  0  0
    7.1898   -1.2550   -0.6372 C   0  0  0  0  0  0  0  0  0  0  0  0
   10.6652   -2.4485   -1.5110 H   0  0  0  0  0  0  0  0  0  0  0  0
    8.8085    0.0284    1.9903 H   0  0  0  0  0  0  0  0  0  0  0  0
    1.8139   -0.8218   -1.5255 H   0  0  0  0  0  0  0  0  0  0  0  0
    1.4646    0.9005   -2.0845 H   0  0  0  0  0  0  0  0  0  0  0  0
   -0.1305   -1.1097   -0.4220 H   0  0  0  0  0  0  0  0  0  0  0  0
   -0.6656   -0.1432   -1.8265 H   0  0  0  0  0  0  0  0  0  0  0  0
   -1.8224    2.1287   -1.4036 H   0  0  0  0  0  0  0  0  0  0  0  0
   -2.3097    2.2749    0.2863 H   0  0  0  0  0  0  0  0  0  0  0  0
   -2.5550   -0.6713    0.8245 H   0  0  0  0  0  0  0  0  0  0  0  0
   -3.5824    0.7017    1.2478 H   0  0  0  0  0  0  0  0  0  0  0  0
   -5.3756    1.6493   -1.4370 H   0  0  0  0  0  0  0  0  0  0  0  0
   -6.1344    3.9392   -1.2257 H   0  0  0  0  0  0  0  0  0  0  0  0
   -7.5395    4.6269    0.6858 H   0  0  0  0  0  0  0  0  0  0  0  0
   -8.1679    2.9231    2.4246 H   0  0  0  0  0  0  0  0  0  0  0  0
   -3.4293   -3.9090    1.0629 H   0  0  0  0  0  0  0  0  0  0  0  0
   -3.9608   -3.5918   -2.0335 H   0  0  0  0  0  0  0  0  0  0  0  0
   -2.9996   -4.9533   -1.1870 H   0  0  0  0  0  0  0  0  0  0  0  0
   -1.3603   -3.2256   -0.2540 H   0  0  0  0  0  0  0  0  0  0  0  0
   -2.2814   -1.9345   -1.1711 H   0  0  0  0  0  0  0  0  0  0  0  0
   -0.1792    2.8586    0.7316 H   0  0  0  0  0  0  0  0  0  0  0  0
    0.5588    2.4804   -0.9089 H   0  0  0  0  0  0  0  0  0  0  0  0
    2.1542    2.2850    1.2607 H   0  0  0  0  0  0  0  0  0  0  0  0
    1.0691    0.9290    1.6684 H   0  0  0  0  0  0  0  0  0  0  0  0
    7.2707   -1.8677   -1.4987 H   0  0  0  0  0  0  0  0  0  0  0  0
  1  2  2  0
  2  3  1  0
  2  4  1  0
  4  5  2  0
  5  6  1  0
  6  7  1  0
  6  8  2  0
  8  9  1  0
  9 10  2  0
 10 11  1  0
 11 12  1  0
 12 13  1  0
 13 14  1  0
 14 15  1  0
 14 16  1  0
 16 17  1  0
 17 18  1  0
 18 19  1  0
 19 20  1  0
 20 21  1  0
 21 22  2  0
 22 23  1  0
 23 24  2  0
 24 25  1  0
 25 26  2  0
 26 27  1  0
 20 28  2  0
 28 29  1  0
 29 30  1  0
 30 31  1  0
 31 32  1  0
 32 33  1  0
 14 34  1  0
 34 35  1  0
 10 36  1  0
 36 37  1  0
 37 38  2  0
 38  4  1  0
 37  8  1  0
 35 11  1  0
 30 19  2  0
 33 31  1  0
 26 21  1  0
  3 39  1  0
  5 40  1  0
 12 41  1  0
 12 42  1  0
 13 43  1  0
 13 44  1  0
 16 45  1  0
 16 46  1  0
 18 47  1  0
 18 48  1  0
 22 49  1  0
 23 50  1  0
 24 51  1  0
 25 52  1  0
 31 53  1  0
 32 54  1  0
 32 55  1  0
 33 56  1  0
 33 57  1  0
 34 58  1  0
 34 59  1  0
 35 60  1  0
 35 61  1  0
 38 62  1  0
M  END
>  <pEC50>  (28) 
5.271

$$$$
35
     RDKit          3D

 65 70  0  0  0  0  0  0  0  0999 V2000
    9.6017   -2.8712    0.8266 O   0  0  0  0  0  0  0  0  0  0  0  0
    9.4743   -1.6208    0.6978 C   0  0  0  0  0  0  0  0  0  0  0  0
   10.6570   -0.8900    0.7618 O   0  0  0  0  0  0  0  0  0  0  0  0
    8.1959   -0.9851    0.4975 C   0  0  0  0  0  0  0  0  0  0  0  0
    8.1169    0.3760    0.3658 C   0  0  0  0  0  0  0  0  0  0  0  0
    6.9494    1.0715    0.1736 C   0  0  0  0  0  0  0  0  0  0  0  0
    7.0442    2.4130    0.0632 F   0  0  0  0  0  0  0  0  0  0  0  0
    5.7295    0.3761    0.1012 C   0  0  0  0  0  0  0  0  0  0  0  0
    4.5257    0.8726   -0.0777 N   0  0  0  0  0  0  0  0  0  0  0  0
    3.4990    0.3097   -0.1415 C   0  0  0  0  0  0  0  0  0  0  0  0
    2.0782    0.4976   -0.3122 N   0  0  0  0  0  0  0  0  0  0  0  0
    1.1478   -0.6057   -0.3515 C   0  0  0  0  0  0  0  0  0  0  0  0
   -0.2113   -0.0001   -0.6569 C   0  0  0  0  0  0  0  0  0  0  0  0
   -0.6169    0.9970    0.4066 C   0  0  0  0  0  0  0  0  0  0  0  0
   -0.6952    0.3514    1.6150 F   0  0  0  0  0  0  0  0  0  0  0  0
   -1.9194    1.6302   -0.0219 C   0  0  0  0  0  0  0  0  0  0  0  0
   -2.9655    0.7875   -0.2066 O   0  0  0  0  0  0  0  0  0  0  0  0
   -3.3861    0.0262    0.8466 C   0  0  0  0  0  0  0  0  0  0  0  0
   -4.5883   -0.7626    0.3726 C   0  0  0  0  0  0  0  0  0  0  0  0
   -5.8653   -0.2587    0.2089 C   0  0  0  0  0  0  0  0  0  0  0  0
   -6.3215    1.0888    0.4549 C   0  0  0  0  0  0  0  0  0  0  0  0
   -6.2178    1.7330    1.6826 C   0  0  0  0  0  0  0  0  0  0  0  0
   -6.6626    3.0142    1.9103 C   0  0  0  0  0  0  0  0  0  0  0  0
   -7.2412    3.6829    0.8526 C   0  0  0  0  0  0  0  0  0  0  0  0
   -7.3743    3.0958   -0.3957 C   0  0  0  0  0  0  0  0  0  0  0  0
   -6.9059    1.7917   -0.5751 C   0  0  0  0  0  0  0  0  0  0  0  0
   -7.0604    1.1835   -1.9172 C   0  0  0  0  0  0  0  0  0  0  0  0
   -5.8204    0.8341   -2.4428 F   0  0  0  0  0  0  0  0  0  0  0  0
   -7.5699    2.1202   -2.8278 F   0  0  0  0  0  0  0  0  0  0  0  0
   -7.9591    0.1392   -1.9413 F   0  0  0  0  0  0  0  0  0  0  0  0
   -6.5922   -1.3222   -0.2457 N   0  0  0  0  0  0  0  0  0  0  0  0
   -5.8373   -2.3663   -0.3478 O   0  0  0  0  0  0  0  0  0  0  0  0
   -4.6133   -2.0926    0.0118 C   0  0  0  0  0  0  0  0  0  0  0  0
   -3.4330   -3.0255    0.0390 C   0  0  0  0  0  0  0  0  0  0  0  0
   -2.5744   -3.1523   -1.1841 C   0  0  0  0  0  0  0  0  0  0  0  0
   -3.5175   -4.2359   -0.8969 C   0  0  0  0  0  0  0  0  0  0  0  0
    0.4174    2.1044    0.4861 C   0  0  0  0  0  0  0  0  0  0  0  0
    1.5416    1.8192   -0.4475 C   0  0  0  0  0  0  0  0  0  0  0  0
    4.1003   -1.4793    0.0867 S   0  0  0  0  0  0  0  0  0  0  0  0
    5.8070   -0.9632    0.2306 C   0  0  0  0  0  0  0  0  0  0  0  0
    6.9895   -1.6695    0.4255 C   0  0  0  0  0  0  0  0  0  0  0  0
   11.5472   -1.2366    0.4210 H   0  0  0  0  0  0  0  0  0  0  0  0
    9.0649    0.9211    0.4221 H   0  0  0  0  0  0  0  0  0  0  0  0
    1.3975   -1.2604   -1.2172 H   0  0  0  0  0  0  0  0  0  0  0  0
    1.1324   -1.2067    0.5781 H   0  0  0  0  0  0  0  0  0  0  0  0
   -0.1346    0.4660   -1.6597 H   0  0  0  0  0  0  0  0  0  0  0  0
   -0.9425   -0.8136   -0.6840 H   0  0  0  0  0  0  0  0  0  0  0  0
   -1.7509    2.2857   -0.9318 H   0  0  0  0  0  0  0  0  0  0  0  0
   -2.2259    2.3957    0.7582 H   0  0  0  0  0  0  0  0  0  0  0  0
   -3.6126    0.6052    1.7507 H   0  0  0  0  0  0  0  0  0  0  0  0
   -2.5753   -0.7346    1.0650 H   0  0  0  0  0  0  0  0  0  0  0  0
   -5.7742    1.2069    2.4989 H   0  0  0  0  0  0  0  0  0  0  0  0
   -6.5851    3.5199    2.8618 H   0  0  0  0  0  0  0  0  0  0  0  0
   -7.6137    4.6985    0.9648 H   0  0  0  0  0  0  0  0  0  0  0  0
   -7.8367    3.6597   -1.2029 H   0  0  0  0  0  0  0  0  0  0  0  0
   -3.0180   -3.2930    1.0364 H   0  0  0  0  0  0  0  0  0  0  0  0
   -2.7793   -2.4842   -2.0382 H   0  0  0  0  0  0  0  0  0  0  0  0
   -1.4883   -3.2337   -0.9511 H   0  0  0  0  0  0  0  0  0  0  0  0
   -3.1010   -5.2004   -0.5534 H   0  0  0  0  0  0  0  0  0  0  0  0
   -4.4176   -4.3440   -1.5310 H   0  0  0  0  0  0  0  0  0  0  0  0
   -0.0175    3.0829    0.1955 H   0  0  0  0  0  0  0  0  0  0  0  0
    0.7997    2.2447    1.5170 H   0  0  0  0  0  0  0  0  0  0  0  0
    2.3767    2.5543   -0.2518 H   0  0  0  0  0  0  0  0  0  0  0  0
    1.2775    1.9770   -1.5133 H   0  0  0  0  0  0  0  0  0  0  0  0
    6.9735   -2.7312    0.5207 H   0  0  0  0  0  0  0  0  0  0  0  0
  1  2  2  0
  2  3  1  0
  2  4  1  0
  4  5  2  0
  5  6  1  0
  6  7  1  0
  6  8  2  0
  8  9  1  0
  9 10  2  0
 10 11  1  0
 11 12  1  0
 12 13  1  0
 13 14  1  0
 14 15  1  0
 14 16  1  0
 16 17  1  0
 17 18  1  0
 18 19  1  0
 19 20  1  0
 20 21  1  0
 21 22  2  0
 22 23  1  0
 23 24  2  0
 24 25  1  0
 25 26  2  0
 26 27  1  0
 27 28  1  0
 27 29  1  0
 27 30  1  0
 20 31  2  0
 31 32  1  0
 32 33  1  0
 33 34  1  0
 34 35  1  0
 35 36  1  0
 14 37  1  0
 37 38  1  0
 10 39  1  0
 39 40  1  0
 40 41  2  0
 41  4  1  0
 40  8  1  0
 38 11  1  0
 33 19  2  0
 36 34  1  0
 26 21  1  0
  3 42  1  0
  5 43  1  0
 12 44  1  0
 12 45  1  0
 13 46  1  0
 13 47  1  0
 16 48  1  0
 16 49  1  0
 18 50  1  0
 18 51  1  0
 22 52  1  0
 23 53  1  0
 24 54  1  0
 25 55  1  0
 34 56  1  0
 35 57  1  0
 35 58  1  0
 36 59  1  0
 36 60  1  0
 37 61  1  0
 37 62  1  0
 38 63  1  0
 38 64  1  0
 41 65  1  0
M  END
>  <pEC50>  (29) 
5.4

$$$$
36
     RDKit          3D

 66 71  0  0  0  0  0  0  0  0999 V2000
    9.9784   -2.0412   -0.5917 O   0  0  0  0  0  0  0  0  0  0  0  0
    9.5779   -1.1765    0.2413 C   0  0  0  0  0  0  0  0  0  0  0  0
   10.5451   -0.6106    1.0656 O   0  0  0  0  0  0  0  0  0  0  0  0
    8.2022   -0.7721    0.3612 C   0  0  0  0  0  0  0  0  0  0  0  0
    7.8304    0.1617    1.2955 C   0  0  0  0  0  0  0  0  0  0  0  0
    6.5539    0.6033    1.4758 C   0  0  0  0  0  0  0  0  0  0  0  0
    6.3469    1.5356    2.4426 F   0  0  0  0  0  0  0  0  0  0  0  0
    5.5118    0.1006    0.6771 C   0  0  0  0  0  0  0  0  0  0  0  0
    4.2417    0.4228    0.7240 N   0  0  0  0  0  0  0  0  0  0  0  0
    3.3581   -0.0086    0.0380 C   0  0  0  0  0  0  0  0  0  0  0  0
    1.9291    0.1208   -0.1491 N   0  0  0  0  0  0  0  0  0  0  0  0
    1.2663    0.9956    0.7670 C   0  0  0  0  0  0  0  0  0  0  0  0
   -0.0121    1.6108    0.2454 C   0  0  0  0  0  0  0  0  0  0  0  0
   -0.8077    0.4503   -0.3939 C   0  0  0  0  0  0  0  0  0  0  0  0
   -0.8267   -0.5128    0.5613 F   0  0  0  0  0  0  0  0  0  0  0  0
   -2.1536    0.9453   -0.8571 C   0  0  0  0  0  0  0  0  0  0  0  0
   -2.9779    1.4329    0.1059 O   0  0  0  0  0  0  0  0  0  0  0  0
   -3.5297    0.5627    0.9992 C   0  0  0  0  0  0  0  0  0  0  0  0
   -4.5089   -0.3851    0.4540 C   0  0  0  0  0  0  0  0  0  0  0  0
   -5.8359   -0.0648    0.1534 C   0  0  0  0  0  0  0  0  0  0  0  0
   -6.5585    1.1842    0.2946 C   0  0  0  0  0  0  0  0  0  0  0  0
   -6.1265    2.3012   -0.3648 C   0  0  0  0  0  0  0  0  0  0  0  0
   -6.8214    3.5172   -0.2558 C   0  0  0  0  0  0  0  0  0  0  0  0
   -7.9574    3.5845    0.5288 C   0  0  0  0  0  0  0  0  0  0  0  0
   -8.4025    2.4619    1.1990 C   0  0  0  0  0  0  0  0  0  0  0  0
   -7.6945    1.2816    1.0697 C   0  0  0  0  0  0  0  0  0  0  0  0
   -8.1710    0.1727    1.7588 O   0  0  0  0  0  0  0  0  0  0  0  0
   -7.6691   -0.0073    3.0838 C   0  0  0  0  0  0  0  0  0  0  0  0
   -7.9931    1.0833    3.8707 F   0  0  0  0  0  0  0  0  0  0  0  0
   -6.2913   -0.1109    3.0939 F   0  0  0  0  0  0  0  0  0  0  0  0
   -8.1524   -1.1926    3.6066 F   0  0  0  0  0  0  0  0  0  0  0  0
   -6.3741   -1.2204   -0.3045 N   0  0  0  0  0  0  0  0  0  0  0  0
   -5.5219   -2.1633   -0.3036 O   0  0  0  0  0  0  0  0  0  0  0  0
   -4.3518   -1.6981    0.1563 C   0  0  0  0  0  0  0  0  0  0  0  0
   -3.1361   -2.5864    0.2743 C   0  0  0  0  0  0  0  0  0  0  0  0
   -2.3528   -2.7642   -0.9719 C   0  0  0  0  0  0  0  0  0  0  0  0
   -3.1545   -3.8917   -0.3877 C   0  0  0  0  0  0  0  0  0  0  0  0
   -0.0209    0.0358   -1.6210 C   0  0  0  0  0  0  0  0  0  0  0  0
    1.2882   -0.6177   -1.2209 C   0  0  0  0  0  0  0  0  0  0  0  0
    4.3204   -1.1930   -1.0300 S   0  0  0  0  0  0  0  0  0  0  0  0
    5.8776   -0.8210   -0.2453 C   0  0  0  0  0  0  0  0  0  0  0  0
    7.1680   -1.2670   -0.4268 C   0  0  0  0  0  0  0  0  0  0  0  0
   11.5157   -0.4997    0.7819 H   0  0  0  0  0  0  0  0  0  0  0  0
    8.6353    0.5672    1.9300 H   0  0  0  0  0  0  0  0  0  0  0  0
    1.9441    1.7891    1.1428 H   0  0  0  0  0  0  0  0  0  0  0  0
    1.0034    0.3886    1.6697 H   0  0  0  0  0  0  0  0  0  0  0  0
   -0.5600    1.9823    1.1595 H   0  0  0  0  0  0  0  0  0  0  0  0
    0.1515    2.4160   -0.4715 H   0  0  0  0  0  0  0  0  0  0  0  0
   -1.9277    1.7029   -1.6599 H   0  0  0  0  0  0  0  0  0  0  0  0
   -2.6414    0.1090   -1.4490 H   0  0  0  0  0  0  0  0  0  0  0  0
   -2.7224    0.0600    1.5705 H   0  0  0  0  0  0  0  0  0  0  0  0
   -4.0838    1.2078    1.7654 H   0  0  0  0  0  0  0  0  0  0  0  0
   -5.2602    2.3575   -1.0052 H   0  0  0  0  0  0  0  0  0  0  0  0
   -6.4926    4.4089   -0.7698 H   0  0  0  0  0  0  0  0  0  0  0  0
   -8.5322    4.5010    0.6479 H   0  0  0  0  0  0  0  0  0  0  0  0
   -9.2922    2.5263    1.8090 H   0  0  0  0  0  0  0  0  0  0  0  0
   -2.5816   -2.5270    1.2292 H   0  0  0  0  0  0  0  0  0  0  0  0
   -2.6863   -2.2740   -1.9121 H   0  0  0  0  0  0  0  0  0  0  0  0
   -1.2473   -2.8248   -0.8834 H   0  0  0  0  0  0  0  0  0  0  0  0
   -2.6217   -4.7574    0.0720 H   0  0  0  0  0  0  0  0  0  0  0  0
   -4.0929   -4.1765   -0.9144 H   0  0  0  0  0  0  0  0  0  0  0  0
   -0.6358   -0.6792   -2.2006 H   0  0  0  0  0  0  0  0  0  0  0  0
    0.1357    0.9403   -2.2311 H   0  0  0  0  0  0  0  0  0  0  0  0
    1.0971   -1.6662   -0.9887 H   0  0  0  0  0  0  0  0  0  0  0  0
    1.9584   -0.5678   -2.1011 H   0  0  0  0  0  0  0  0  0  0  0  0
    7.3714   -2.0022   -1.1833 H   0  0  0  0  0  0  0  0  0  0  0  0
  1  2  2  0
  2  3  1  0
  2  4  1  0
  4  5  2  0
  5  6  1  0
  6  7  1  0
  6  8  2  0
  8  9  1  0
  9 10  2  0
 10 11  1  0
 11 12  1  0
 12 13  1  0
 13 14  1  0
 14 15  1  0
 14 16  1  0
 16 17  1  0
 17 18  1  0
 18 19  1  0
 19 20  1  0
 20 21  1  0
 21 22  2  0
 22 23  1  0
 23 24  2  0
 24 25  1  0
 25 26  2  0
 26 27  1  0
 27 28  1  0
 28 29  1  0
 28 30  1  0
 28 31  1  0
 20 32  2  0
 32 33  1  0
 33 34  1  0
 34 35  1  0
 35 36  1  0
 36 37  1  0
 14 38  1  0
 38 39  1  0
 10 40  1  0
 40 41  1  0
 41 42  2  0
 42  4  1  0
 41  8  1  0
 39 11  1  0
 34 19  2  0
 37 35  1  0
 26 21  1  0
  3 43  1  0
  5 44  1  0
 12 45  1  0
 12 46  1  0
 13 47  1  0
 13 48  1  0
 16 49  1  0
 16 50  1  0
 18 51  1  0
 18 52  1  0
 22 53  1  0
 23 54  1  0
 24 55  1  0
 25 56  1  0
 35 57  1  0
 36 58  1  0
 36 59  1  0
 37 60  1  0
 37 61  1  0
 38 62  1  0
 38 63  1  0
 39 64  1  0
 39 65  1  0
 42 66  1  0
M  END
>  <pEC50>  (30) 
5.764

$$$$
37
     RDKit          3D

 66 71  0  0  0  0  0  0  0  0999 V2000
   10.4337   -0.5971    1.4019 O   0  0  0  0  0  0  0  0  0  0  0  0
    9.6909   -0.9315    0.4203 C   0  0  0  0  0  0  0  0  0  0  0  0
   10.1891   -1.5545   -0.7000 O   0  0  0  0  0  0  0  0  0  0  0  0
    8.2829   -0.6087    0.5675 C   0  0  0  0  0  0  0  0  0  0  0  0
    7.7291    0.0082    1.6661 C   0  0  0  0  0  0  0  0  0  0  0  0
    6.4080    0.2989    1.7848 C   0  0  0  0  0  0  0  0  0  0  0  0
    5.9942    0.9135    2.9203 F   0  0  0  0  0  0  0  0  0  0  0  0
    5.5057   -0.0296    0.7474 C   0  0  0  0  0  0  0  0  0  0  0  0
    4.2329    0.1947    0.7414 N   0  0  0  0  0  0  0  0  0  0  0  0
    3.4867   -0.1524   -0.2795 C   0  0  0  0  0  0  0  0  0  0  0  0
    2.0782   -0.0111   -0.5007 N   0  0  0  0  0  0  0  0  0  0  0  0
    1.3130    0.5448    0.5653 C   0  0  0  0  0  0  0  0  0  0  0  0
    0.2437    1.4847    0.1005 C   0  0  0  0  0  0  0  0  0  0  0  0
   -0.4051    1.0697   -1.2076 C   0  0  0  0  0  0  0  0  0  0  0  0
    0.0512    1.9061   -2.1929 F   0  0  0  0  0  0  0  0  0  0  0  0
   -1.9325    1.2087   -1.0758 C   0  0  0  0  0  0  0  0  0  0  0  0
   -2.5287    0.5421   -0.2251 O   0  0  0  0  0  0  0  0  0  0  0  0
   -3.1308   -0.1323    0.6334 C   0  0  0  0  0  0  0  0  0  0  0  0
   -4.4208   -0.8293    0.3680 C   0  0  0  0  0  0  0  0  0  0  0  0
   -5.6466   -0.2210    0.3719 C   0  0  0  0  0  0  0  0  0  0  0  0
   -6.0036    1.1592    0.6270 C   0  0  0  0  0  0  0  0  0  0  0  0
   -5.4228    2.2399    0.0208 C   0  0  0  0  0  0  0  0  0  0  0  0
   -5.7694    3.5465    0.3032 C   0  0  0  0  0  0  0  0  0  0  0  0
   -6.7460    3.8097    1.2376 C   0  0  0  0  0  0  0  0  0  0  0  0
   -7.3653    2.7544    1.8797 C   0  0  0  0  0  0  0  0  0  0  0  0
   -8.3435    3.0624    2.8152 O   0  0  0  0  0  0  0  0  0  0  0  0
   -8.0515    3.2655    4.1839 C   0  0  0  0  0  0  0  0  0  0  0  0
   -7.1849    4.2918    4.4057 F   0  0  0  0  0  0  0  0  0  0  0  0
   -9.2482    3.3732    4.8557 F   0  0  0  0  0  0  0  0  0  0  0  0
   -7.4592    2.0735    4.6161 F   0  0  0  0  0  0  0  0  0  0  0  0
   -6.9939    1.4740    1.5723 C   0  0  0  0  0  0  0  0  0  0  0  0
   -6.5740   -1.1956    0.1200 N   0  0  0  0  0  0  0  0  0  0  0  0
   -5.9433   -2.3069   -0.0238 O   0  0  0  0  0  0  0  0  0  0  0  0
   -4.6321   -2.1473    0.1151 C   0  0  0  0  0  0  0  0  0  0  0  0
   -3.6921   -3.2804   -0.0118 C   0  0  0  0  0  0  0  0  0  0  0  0
   -3.6313   -3.8504   -1.4251 C   0  0  0  0  0  0  0  0  0  0  0  0
   -2.4513   -3.1302   -0.8193 C   0  0  0  0  0  0  0  0  0  0  0  0
   -0.0257   -0.3398   -1.5420 C   0  0  0  0  0  0  0  0  0  0  0  0
    1.4642   -0.4024   -1.7530 C   0  0  0  0  0  0  0  0  0  0  0  0
    4.6817   -0.8780   -1.3691 S   0  0  0  0  0  0  0  0  0  0  0  0
    6.0760   -0.6371   -0.3276 C   0  0  0  0  0  0  0  0  0  0  0  0
    7.4168   -0.9361   -0.4542 C   0  0  0  0  0  0  0  0  0  0  0  0
   11.1438   -1.8489   -0.6922 H   0  0  0  0  0  0  0  0  0  0  0  0
    8.4426    0.2582    2.4608 H   0  0  0  0  0  0  0  0  0  0  0  0
    0.9094   -0.3032    1.1654 H   0  0  0  0  0  0  0  0  0  0  0  0
    1.9700    1.1084    1.2442 H   0  0  0  0  0  0  0  0  0  0  0  0
   -0.5454    1.5157    0.8822 H   0  0  0  0  0  0  0  0  0  0  0  0
    0.6309    2.5095    0.0051 H   0  0  0  0  0  0  0  0  0  0  0  0
   -2.3079    1.0640   -2.1525 H   0  0  0  0  0  0  0  0  0  0  0  0
   -2.0809    2.3525   -0.9567 H   0  0  0  0  0  0  0  0  0  0  0  0
   -3.2811    0.4947    1.6055 H   0  0  0  0  0  0  0  0  0  0  0  0
   -2.4362   -0.9507    1.0914 H   0  0  0  0  0  0  0  0  0  0  0  0
   -4.6609    2.0949   -0.7226 H   0  0  0  0  0  0  0  0  0  0  0  0
   -5.2982    4.3946   -0.1893 H   0  0  0  0  0  0  0  0  0  0  0  0
   -7.0010    4.8448    1.4391 H   0  0  0  0  0  0  0  0  0  0  0  0
   -7.4778    0.6524    2.0740 H   0  0  0  0  0  0  0  0  0  0  0  0
   -3.6913   -4.0121    0.7928 H   0  0  0  0  0  0  0  0  0  0  0  0
   -3.5861   -4.9550   -1.5364 H   0  0  0  0  0  0  0  0  0  0  0  0
   -4.1705   -3.3393   -2.2285 H   0  0  0  0  0  0  0  0  0  0  0  0
   -1.5938   -3.7694   -0.5783 H   0  0  0  0  0  0  0  0  0  0  0  0
   -2.2070   -2.1356   -1.2793 H   0  0  0  0  0  0  0  0  0  0  0  0
   -0.5908   -0.7319   -2.4243 H   0  0  0  0  0  0  0  0  0  0  0  0
   -0.2266   -0.9980   -0.6415 H   0  0  0  0  0  0  0  0  0  0  0  0
    1.7551   -1.4470   -2.0308 H   0  0  0  0  0  0  0  0  0  0  0  0
    1.8248    0.3028   -2.5225 H   0  0  0  0  0  0  0  0  0  0  0  0
    7.7120   -1.4232   -1.3699 H   0  0  0  0  0  0  0  0  0  0  0  0
  1  2  2  0
  2  3  1  0
  2  4  1  0
  4  5  2  0
  5  6  1  0
  6  7  1  0
  6  8  2  0
  8  9  1  0
  9 10  2  0
 10 11  1  0
 11 12  1  0
 12 13  1  0
 13 14  1  0
 14 15  1  0
 14 16  1  0
 16 17  1  0
 17 18  1  0
 18 19  1  0
 19 20  1  0
 20 21  1  0
 21 22  2  0
 22 23  1  0
 23 24  2  0
 24 25  1  0
 25 26  1  0
 26 27  1  0
 27 28  1  0
 27 29  1  0
 27 30  1  0
 25 31  2  0
 20 32  2  0
 32 33  1  0
 33 34  1  0
 34 35  1  0
 35 36  1  0
 36 37  1  0
 14 38  1  0
 38 39  1  0
 10 40  1  0
 40 41  1  0
 41 42  2  0
 42  4  1  0
 41  8  1  0
 39 11  1  0
 34 19  2  0
 37 35  1  0
 31 21  1  0
  3 43  1  0
  5 44  1  0
 12 45  1  0
 12 46  1  0
 13 47  1  0
 13 48  1  0
 16 49  1  0
 16 50  1  0
 18 51  1  0
 18 52  1  0
 22 53  1  0
 23 54  1  0
 24 55  1  0
 31 56  1  0
 35 57  1  0
 36 58  1  0
 36 59  1  0
 37 60  1  0
 37 61  1  0
 38 62  1  0
 38 63  1  0
 39 64  1  0
 39 65  1  0
 42 66  1  0
M  END
>  <pEC50>  (31) 
5.142

$$$$
38
     RDKit          3D

 66 71  0  0  0  0  0  0  0  0999 V2000
   10.1961   -1.6502    0.0491 O   0  0  0  0  0  0  0  0  0  0  0  0
    9.8533   -0.6771   -0.6396 C   0  0  0  0  0  0  0  0  0  0  0  0
   10.8406    0.0475   -1.3109 O   0  0  0  0  0  0  0  0  0  0  0  0
    8.4782   -0.2332   -0.7982 C   0  0  0  0  0  0  0  0  0  0  0  0
    8.1188    0.8428   -1.5627 C   0  0  0  0  0  0  0  0  0  0  0  0
    6.8514    1.3034   -1.7459 C   0  0  0  0  0  0  0  0  0  0  0  0
    6.6608    2.3800   -2.5334 F   0  0  0  0  0  0  0  0  0  0  0  0
    5.7812    0.6386   -1.1065 C   0  0  0  0  0  0  0  0  0  0  0  0
    4.5238    0.9321   -1.1641 N   0  0  0  0  0  0  0  0  0  0  0  0
    3.5860    0.3274   -0.5863 C   0  0  0  0  0  0  0  0  0  0  0  0
    2.1839    0.4898   -0.5190 N   0  0  0  0  0  0  0  0  0  0  0  0
    1.3623   -0.1397   -1.4991 C   0  0  0  0  0  0  0  0  0  0  0  0
   -0.0713   -0.3032   -1.0758 C   0  0  0  0  0  0  0  0  0  0  0  0
   -0.6116    0.7525   -0.1842 C   0  0  0  0  0  0  0  0  0  0  0  0
   -0.6418    0.2404    1.1228 F   0  0  0  0  0  0  0  0  0  0  0  0
   -1.9032    1.3622   -0.6010 C   0  0  0  0  0  0  0  0  0  0  0  0
   -2.9946    0.5745   -0.7285 O   0  0  0  0  0  0  0  0  0  0  0  0
   -3.3816   -0.0818    0.3898 C   0  0  0  0  0  0  0  0  0  0  0  0
   -4.6232   -0.8653    0.3182 C   0  0  0  0  0  0  0  0  0  0  0  0
   -5.8882   -0.3276    0.3916 C   0  0  0  0  0  0  0  0  0  0  0  0
   -6.3045    1.0505    0.5632 C   0  0  0  0  0  0  0  0  0  0  0  0
   -7.2015    1.3802    1.5949 C   0  0  0  0  0  0  0  0  0  0  0  0
   -7.6550    2.6610    1.8034 C   0  0  0  0  0  0  0  0  0  0  0  0
   -7.2457    3.7011    0.9982 C   0  0  0  0  0  0  0  0  0  0  0  0
   -7.6953    4.9991    1.1978 O   0  0  0  0  0  0  0  0  0  0  0  0
   -8.8445    5.5232    0.5917 C   0  0  0  0  0  0  0  0  0  0  0  0
   -8.8022    5.5226   -0.7763 F   0  0  0  0  0  0  0  0  0  0  0  0
  -10.0036    4.8694    0.9660 F   0  0  0  0  0  0  0  0  0  0  0  0
   -8.9757    6.8302    1.0726 F   0  0  0  0  0  0  0  0  0  0  0  0
   -6.3665    3.3959   -0.0189 C   0  0  0  0  0  0  0  0  0  0  0  0
   -5.9018    2.0896   -0.2349 C   0  0  0  0  0  0  0  0  0  0  0  0
   -6.7881   -1.3624    0.3196 N   0  0  0  0  0  0  0  0  0  0  0  0
   -6.1285   -2.4514    0.2102 O   0  0  0  0  0  0  0  0  0  0  0  0
   -4.8221   -2.2228    0.2026 C   0  0  0  0  0  0  0  0  0  0  0  0
   -3.7564   -3.2466    0.0878 C   0  0  0  0  0  0  0  0  0  0  0  0
   -3.5536   -3.9355   -1.2131 C   0  0  0  0  0  0  0  0  0  0  0  0
   -2.5929   -2.8900   -0.7679 C   0  0  0  0  0  0  0  0  0  0  0  0
    0.3789    1.9362   -0.0595 C   0  0  0  0  0  0  0  0  0  0  0  0
    1.6318    1.3065    0.5668 C   0  0  0  0  0  0  0  0  0  0  0  0
    4.5312   -0.9783    0.2745 S   0  0  0  0  0  0  0  0  0  0  0  0
    6.1597   -0.4447   -0.3392 C   0  0  0  0  0  0  0  0  0  0  0  0
    7.4449   -0.9164   -0.1498 C   0  0  0  0  0  0  0  0  0  0  0  0
   11.8161   -0.0784   -1.1544 H   0  0  0  0  0  0  0  0  0  0  0  0
    8.9558    1.3607   -2.0613 H   0  0  0  0  0  0  0  0  0  0  0  0
    1.7719   -1.1618   -1.6885 H   0  0  0  0  0  0  0  0  0  0  0  0
    1.4632    0.4027   -2.4818 H   0  0  0  0  0  0  0  0  0  0  0  0
   -0.1888   -1.3037   -0.5691 H   0  0  0  0  0  0  0  0  0  0  0  0
   -0.6832   -0.3752   -1.9959 H   0  0  0  0  0  0  0  0  0  0  0  0
   -1.6865    1.9217   -1.5600 H   0  0  0  0  0  0  0  0  0  0  0  0
   -2.1573    2.1326    0.1956 H   0  0  0  0  0  0  0  0  0  0  0  0
   -3.3743    0.6262    1.2520 H   0  0  0  0  0  0  0  0  0  0  0  0
   -2.5751   -0.8277    0.6627 H   0  0  0  0  0  0  0  0  0  0  0  0
   -7.5245    0.5701    2.2267 H   0  0  0  0  0  0  0  0  0  0  0  0
   -8.3515    2.9119    2.6062 H   0  0  0  0  0  0  0  0  0  0  0  0
   -6.0385    4.2088   -0.6588 H   0  0  0  0  0  0  0  0  0  0  0  0
   -5.2274    1.9204   -1.0609 H   0  0  0  0  0  0  0  0  0  0  0  0
   -3.5973   -3.8049    1.0335 H   0  0  0  0  0  0  0  0  0  0  0  0
   -3.2086   -4.9758   -1.2092 H   0  0  0  0  0  0  0  0  0  0  0  0
   -4.2890   -3.6539   -1.9942 H   0  0  0  0  0  0  0  0  0  0  0  0
   -1.6131   -3.1872   -0.3256 H   0  0  0  0  0  0  0  0  0  0  0  0
   -2.5402   -1.9981   -1.3997 H   0  0  0  0  0  0  0  0  0  0  0  0
    0.6340    2.2222   -1.0913 H   0  0  0  0  0  0  0  0  0  0  0  0
   -0.0484    2.7217    0.5606 H   0  0  0  0  0  0  0  0  0  0  0  0
    1.2551    0.5985    1.3524 H   0  0  0  0  0  0  0  0  0  0  0  0
    2.3280    2.0481    0.9516 H   0  0  0  0  0  0  0  0  0  0  0  0
    7.5986   -1.7653    0.4704 H   0  0  0  0  0  0  0  0  0  0  0  0
  1  2  2  0
  2  3  1  0
  2  4  1  0
  4  5  2  0
  5  6  1  0
  6  7  1  0
  6  8  2  0
  8  9  1  0
  9 10  2  0
 10 11  1  0
 11 12  1  0
 12 13  1  0
 13 14  1  0
 14 15  1  0
 14 16  1  0
 16 17  1  0
 17 18  1  0
 18 19  1  0
 19 20  1  0
 20 21  1  0
 21 22  2  0
 22 23  1  0
 23 24  2  0
 24 25  1  0
 25 26  1  0
 26 27  1  0
 26 28  1  0
 26 29  1  0
 24 30  1  0
 30 31  2  0
 20 32  2  0
 32 33  1  0
 33 34  1  0
 34 35  1  0
 35 36  1  0
 36 37  1  0
 14 38  1  0
 38 39  1  0
 10 40  1  0
 40 41  1  0
 41 42  2  0
 42  4  1  0
 41  8  1  0
 39 11  1  0
 34 19  2  0
 37 35  1  0
 31 21  1  0
  3 43  1  0
  5 44  1  0
 12 45  1  0
 12 46  1  0
 13 47  1  0
 13 48  1  0
 16 49  1  0
 16 50  1  0
 18 51  1  0
 18 52  1  0
 22 53  1  0
 23 54  1  0
 30 55  1  0
 31 56  1  0
 35 57  1  0
 36 58  1  0
 36 59  1  0
 37 60  1  0
 37 61  1  0
 38 62  1  0
 38 63  1  0
 39 64  1  0
 39 65  1  0
 42 66  1  0
M  END
>  <pEC50>  (32) 
4.914

$$$$
39
     RDKit          3D

 75 81  0  0  0  0  0  0  0  0999 V2000
    5.4052   -2.1420   -3.4828 C   0  0  0  0  0  0  0  0  0  0  0  0
    5.8646   -1.7266   -2.1728 N   0  0  0  0  0  0  0  0  0  0  0  0
    7.0543   -1.9792   -1.6018 C   0  0  0  0  0  0  0  0  0  0  0  0
    7.0881   -1.3964   -0.3331 C   0  0  0  0  0  0  0  0  0  0  0  0
    8.1592   -1.4106    0.6293 C   0  0  0  0  0  0  0  0  0  0  0  0
    9.2458   -1.9960    0.3999 O   0  0  0  0  0  0  0  0  0  0  0  0
    8.0035   -0.7683    1.8410 O   0  0  0  0  0  0  0  0  0  0  0  0
    5.8576   -0.7814   -0.1723 C   0  0  0  0  0  0  0  0  0  0  0  0
    5.3081   -0.0541    0.8613 C   0  0  0  0  0  0  0  0  0  0  0  0
    4.0298    0.4469    0.7358 C   0  0  0  0  0  0  0  0  0  0  0  0
    3.2415    0.2576   -0.4001 C   0  0  0  0  0  0  0  0  0  0  0  0
    1.9433    0.7660   -0.5173 N   0  0  0  0  0  0  0  0  0  0  0  0
    1.1780    1.4816    0.4663 C   0  0  1  0  0  0  0  0  0  0  0  0
    0.7011    2.6637   -0.3848 C   0  0  0  0  0  0  0  0  0  0  0  0
    0.6736    2.1526   -1.7921 C   0  0  0  0  0  0  0  0  0  0  0  0
    1.0887    0.6752   -1.6699 C   0  0  2  0  0  0  0  0  0  0  0  0
   -0.1327   -0.1768   -1.3989 C   0  0  0  0  0  0  0  0  0  0  0  0
   -0.9589    0.4080   -0.2996 C   0  0  1  0  0  0  0  0  0  0  0  0
   -1.7016    1.4872   -0.6978 F   0  0  0  0  0  0  0  0  0  0  0  0
   -1.9625   -0.6289    0.2302 C   0  0  0  0  0  0  0  0  0  0  0  0
   -2.6793    0.0087    1.2329 O   0  0  0  0  0  0  0  0  0  0  0  0
   -3.6355   -0.7585    1.8465 C   0  0  0  0  0  0  0  0  0  0  0  0
   -4.7108   -1.1976    0.9349 C   0  0  0  0  0  0  0  0  0  0  0  0
   -5.7667   -0.4727    0.4557 C   0  0  0  0  0  0  0  0  0  0  0  0
   -6.1427    0.9009    0.6915 C   0  0  0  0  0  0  0  0  0  0  0  0
   -6.1537    1.5455    1.9061 C   0  0  0  0  0  0  0  0  0  0  0  0
   -6.5380    2.8742    2.0564 C   0  0  0  0  0  0  0  0  0  0  0  0
   -6.9325    3.6148    0.9710 C   0  0  0  0  0  0  0  0  0  0  0  0
   -6.9355    3.0035   -0.2592 C   0  0  0  0  0  0  0  0  0  0  0  0
   -6.5463    1.6657   -0.3963 C   0  0  0  0  0  0  0  0  0  0  0  0
   -6.5705    1.1044   -1.6437 O   0  0  0  0  0  0  0  0  0  0  0  0
   -5.4441    1.1898   -2.4814 C   0  0  0  0  0  0  0  0  0  0  0  0
   -5.6873    0.5536   -3.7028 F   0  0  0  0  0  0  0  0  0  0  0  0
   -5.1659    2.5219   -2.8153 F   0  0  0  0  0  0  0  0  0  0  0  0
   -4.2997    0.7039   -1.9062 F   0  0  0  0  0  0  0  0  0  0  0  0
   -6.4532   -1.3636   -0.3401 N   0  0  0  0  0  0  0  0  0  0  0  0
   -5.8684   -2.4989   -0.3352 O   0  0  0  0  0  0  0  0  0  0  0  0
   -4.8017   -2.4994    0.4091 C   0  0  0  0  0  0  0  0  0  0  0  0
   -3.8446   -3.5944    0.6891 C   0  0  0  0  0  0  0  0  0  0  0  0
   -4.1560   -4.4802    1.9263 C   0  0  0  0  0  0  0  0  0  0  0  0
   -4.3708   -5.0142    0.5780 C   0  0  0  0  0  0  0  0  0  0  0  0
   -0.0669    0.7268    0.8810 C   0  0  0  0  0  0  0  0  0  0  0  0
    3.8524   -0.4803   -1.3989 C   0  0  0  0  0  0  0  0  0  0  0  0
    5.1246   -0.9977   -1.3139 C   0  0  0  0  0  0  0  0  0  0  0  0
    5.4202   -1.3186   -4.2263 H   0  0  0  0  0  0  0  0  0  0  0  0
    4.3895   -2.5860   -3.4629 H   0  0  0  0  0  0  0  0  0  0  0  0
    6.0830   -2.9857   -3.8066 H   0  0  0  0  0  0  0  0  0  0  0  0
    7.8769   -2.5425   -2.0317 H   0  0  0  0  0  0  0  0  0  0  0  0
    8.8003   -0.3422    2.3394 H   0  0  0  0  0  0  0  0  0  0  0  0
    5.8630    0.1361    1.7819 H   0  0  0  0  0  0  0  0  0  0  0  0
    3.5629    1.0286    1.5374 H   0  0  0  0  0  0  0  0  0  0  0  0
    1.7129    1.8059    1.3521 H   0  0  0  0  0  0  0  0  0  0  0  0
   -0.2233    3.1023   -0.0207 H   0  0  0  0  0  0  0  0  0  0  0  0
    1.5052    3.4373   -0.2776 H   0  0  0  0  0  0  0  0  0  0  0  0
    1.4629    2.6366   -2.3836 H   0  0  0  0  0  0  0  0  0  0  0  0
   -0.2735    2.2790   -2.3075 H   0  0  0  0  0  0  0  0  0  0  0  0
    1.5613    0.3201   -2.5814 H   0  0  0  0  0  0  0  0  0  0  0  0
    0.1924   -1.1940   -1.1755 H   0  0  0  0  0  0  0  0  0  0  0  0
   -0.7322   -0.1756   -2.3270 H   0  0  0  0  0  0  0  0  0  0  0  0
   -2.6345   -0.8805   -0.6008 H   0  0  0  0  0  0  0  0  0  0  0  0
   -1.4120   -1.5179    0.6178 H   0  0  0  0  0  0  0  0  0  0  0  0
   -3.1116   -1.6951    2.2490 H   0  0  0  0  0  0  0  0  0  0  0  0
   -4.0111   -0.2757    2.7599 H   0  0  0  0  0  0  0  0  0  0  0  0
   -5.8722    1.0092    2.7916 H   0  0  0  0  0  0  0  0  0  0  0  0
   -6.5344    3.3511    3.0291 H   0  0  0  0  0  0  0  0  0  0  0  0
   -7.2269    4.6435    1.1037 H   0  0  0  0  0  0  0  0  0  0  0  0
   -7.2457    3.5826   -1.1145 H   0  0  0  0  0  0  0  0  0  0  0  0
   -2.7689   -3.4625    0.4806 H   0  0  0  0  0  0  0  0  0  0  0  0
   -3.2803   -4.7811    2.5345 H   0  0  0  0  0  0  0  0  0  0  0  0
   -5.0406   -4.2107    2.5204 H   0  0  0  0  0  0  0  0  0  0  0  0
   -5.4181   -5.1765    0.2406 H   0  0  0  0  0  0  0  0  0  0  0  0
   -3.6756   -5.8054    0.2282 H   0  0  0  0  0  0  0  0  0  0  0  0
    0.1683   -0.1881    1.4466 H   0  0  0  0  0  0  0  0  0  0  0  0
   -0.6355    1.3992    1.5505 H   0  0  0  0  0  0  0  0  0  0  0  0
    3.2870   -0.6635   -2.3113 H   0  0  0  0  0  0  0  0  0  0  0  0
  1  2  1  0
  2  3  1  0
  3  4  2  0
  4  5  1  0
  5  6  2  0
  5  7  1  0
  4  8  1  0
  8  9  2  0
  9 10  1  0
 10 11  2  0
 11 12  1  0
 12 13  1  0
 13 14  1  0
 14 15  1  0
 15 16  1  0
 16 17  1  0
 17 18  1  0
 18 19  1  6
 18 20  1  0
 20 21  1  0
 21 22  1  0
 22 23  1  0
 23 24  1  0
 24 25  1  0
 25 26  2  0
 26 27  1  0
 27 28  2  0
 28 29  1  0
 29 30  2  0
 30 31  1  0
 31 32  1  0
 32 33  1  0
 32 34  1  0
 32 35  1  0
 24 36  2  0
 36 37  1  0
 37 38  1  0
 38 39  1  0
 39 40  1  0
 40 41  1  0
 18 42  1  0
 11 43  1  0
 43 44  2  0
 44  2  1  0
 44  8  1  0
 16 12  1  0
 38 23  2  0
 41 39  1  0
 42 13  1  0
 30 25  1  0
  1 45  1  0
  1 46  1  0
  1 47  1  0
  3 48  1  0
  7 49  1  0
  9 50  1  0
 10 51  1  0
 13 52  1  1
 14 53  1  0
 14 54  1  0
 15 55  1  0
 15 56  1  0
 16 57  1  6
 17 58  1  0
 17 59  1  0
 20 60  1  0
 20 61  1  0
 22 62  1  0
 22 63  1  0
 26 64  1  0
 27 65  1  0
 28 66  1  0
 29 67  1  0
 39 68  1  0
 40 69  1  0
 40 70  1  0
 41 71  1  0
 41 72  1  0
 42 73  1  0
 42 74  1  0
 43 75  1  0
M  END
>  <pEC50>  (33) 
6.108

$$$$
40
     RDKit          3D

 78 84  0  0  0  0  0  0  0  0999 V2000
    5.5961   -3.4522   -3.4536 C   0  0  0  0  0  0  0  0  0  0  0  0
    6.1715   -2.0489   -3.4238 C   0  0  0  0  0  0  0  0  0  0  0  0
    6.3718   -1.5962   -2.0645 N   0  0  0  0  0  0  0  0  0  0  0  0
    7.4949   -1.7865   -1.3509 C   0  0  0  0  0  0  0  0  0  0  0  0
    7.3270   -1.2241   -0.1070 C   0  0  0  0  0  0  0  0  0  0  0  0
    8.2572   -1.1720    1.0091 C   0  0  0  0  0  0  0  0  0  0  0  0
    7.9805   -0.6245    2.0980 O   0  0  0  0  0  0  0  0  0  0  0  0
    9.5012   -1.7537    0.8578 O   0  0  0  0  0  0  0  0  0  0  0  0
    6.0357   -0.6869   -0.1215 C   0  0  0  0  0  0  0  0  0  0  0  0
    5.3022   -0.0033    0.8203 C   0  0  0  0  0  0  0  0  0  0  0  0
    4.0235    0.4352    0.5586 C   0  0  0  0  0  0  0  0  0  0  0  0
    3.4068    0.2065   -0.6779 C   0  0  0  0  0  0  0  0  0  0  0  0
    2.1001    0.6735   -0.9399 N   0  0  0  0  0  0  0  0  0  0  0  0
    1.2665    1.5155   -0.1134 C   0  0  1  0  0  0  0  0  0  0  0  0
    0.8730    2.5831   -1.1497 C   0  0  0  0  0  0  0  0  0  0  0  0
    0.9109    1.8544   -2.4789 C   0  0  0  0  0  0  0  0  0  0  0  0
    1.3031    0.4163   -2.1004 C   0  0  2  0  0  0  0  0  0  0  0  0
    0.0311   -0.3185   -1.8580 C   0  0  0  0  0  0  0  0  0  0  0  0
   -0.6238   -0.1127   -0.5400 C   0  0  2  0  0  0  0  0  0  0  0  0
   -0.8490   -1.3247    0.0549 F   0  0  0  0  0  0  0  0  0  0  0  0
   -2.0133    0.5065   -0.8279 C   0  0  0  0  0  0  0  0  0  0  0  0
   -2.7481    0.7743    0.2461 O   0  0  0  0  0  0  0  0  0  0  0  0
   -3.3080   -0.1137    1.0635 C   0  0  0  0  0  0  0  0  0  0  0  0
   -4.4499   -0.9104    0.5458 C   0  0  0  0  0  0  0  0  0  0  0  0
   -5.7378   -0.3680    0.4085 C   0  0  0  0  0  0  0  0  0  0  0  0
   -6.2333    0.9650    0.6730 C   0  0  0  0  0  0  0  0  0  0  0  0
   -6.1027    1.6236    1.8694 C   0  0  0  0  0  0  0  0  0  0  0  0
   -6.6028    2.9109    2.0551 C   0  0  0  0  0  0  0  0  0  0  0  0
   -7.2459    3.5547    1.0312 C   0  0  0  0  0  0  0  0  0  0  0  0
   -7.3910    2.9206   -0.1706 C   0  0  0  0  0  0  0  0  0  0  0  0
   -6.8892    1.6425   -0.3409 C   0  0  0  0  0  0  0  0  0  0  0  0
   -7.0757    1.0599   -1.5876 O   0  0  0  0  0  0  0  0  0  0  0  0
   -6.1079    1.2504   -2.5871 C   0  0  0  0  0  0  0  0  0  0  0  0
   -5.9093    2.5693   -2.9242 F   0  0  0  0  0  0  0  0  0  0  0  0
   -4.8921    0.7063   -2.2637 F   0  0  0  0  0  0  0  0  0  0  0  0
   -6.5394    0.6141   -3.7383 F   0  0  0  0  0  0  0  0  0  0  0  0
   -6.4674   -1.4249   -0.0620 N   0  0  0  0  0  0  0  0  0  0  0  0
   -5.7327   -2.4701   -0.1954 O   0  0  0  0  0  0  0  0  0  0  0  0
   -4.4875   -2.2260    0.1582 C   0  0  0  0  0  0  0  0  0  0  0  0
   -3.3784   -3.2214    0.1221 C   0  0  0  0  0  0  0  0  0  0  0  0
   -2.9508   -3.8991    1.4226 C   0  0  0  0  0  0  0  0  0  0  0  0
   -3.8433   -4.6138    0.4932 C   0  0  0  0  0  0  0  0  0  0  0  0
    0.0676    0.8080    0.4128 C   0  0  0  0  0  0  0  0  0  0  0  0
    4.1611   -0.4813   -1.6047 C   0  0  0  0  0  0  0  0  0  0  0  0
    5.4455   -0.9230   -1.3470 C   0  0  0  0  0  0  0  0  0  0  0  0
    5.3866   -3.7497   -4.4833 H   0  0  0  0  0  0  0  0  0  0  0  0
    6.3979   -4.1480   -3.0855 H   0  0  0  0  0  0  0  0  0  0  0  0
    4.7439   -3.5541   -2.7631 H   0  0  0  0  0  0  0  0  0  0  0  0
    7.1511   -2.0456   -3.9422 H   0  0  0  0  0  0  0  0  0  0  0  0
    5.5136   -1.3484   -3.9917 H   0  0  0  0  0  0  0  0  0  0  0  0
    8.4149   -2.2875   -1.6340 H   0  0  0  0  0  0  0  0  0  0  0  0
   10.3101   -1.5131    1.4170 H   0  0  0  0  0  0  0  0  0  0  0  0
    5.7467    0.1914    1.7884 H   0  0  0  0  0  0  0  0  0  0  0  0
    3.4403    0.9738    1.2950 H   0  0  0  0  0  0  0  0  0  0  0  0
    1.8407    2.0465    0.6699 H   0  0  0  0  0  0  0  0  0  0  0  0
    1.7081    3.3457   -1.1559 H   0  0  0  0  0  0  0  0  0  0  0  0
   -0.0814    3.0565   -0.9183 H   0  0  0  0  0  0  0  0  0  0  0  0
    1.7257    2.2751   -3.1345 H   0  0  0  0  0  0  0  0  0  0  0  0
   -0.0641    1.8899   -2.9589 H   0  0  0  0  0  0  0  0  0  0  0  0
    1.8483   -0.0839   -2.9155 H   0  0  0  0  0  0  0  0  0  0  0  0
    0.2153   -1.4258   -1.9908 H   0  0  0  0  0  0  0  0  0  0  0  0
   -0.6554   -0.0833   -2.7278 H   0  0  0  0  0  0  0  0  0  0  0  0
   -2.4837   -0.1552   -1.5952 H   0  0  0  0  0  0  0  0  0  0  0  0
   -1.7870    1.4511   -1.3873 H   0  0  0  0  0  0  0  0  0  0  0  0
   -3.6009    0.4027    2.0169 H   0  0  0  0  0  0  0  0  0  0  0  0
   -2.5037   -0.8322    1.4408 H   0  0  0  0  0  0  0  0  0  0  0  0
   -5.6258    1.1773    2.7232 H   0  0  0  0  0  0  0  0  0  0  0  0
   -6.4659    3.3803    3.0291 H   0  0  0  0  0  0  0  0  0  0  0  0
   -7.6230    4.5577    1.2097 H   0  0  0  0  0  0  0  0  0  0  0  0
   -7.8971    3.4192   -0.9862 H   0  0  0  0  0  0  0  0  0  0  0  0
   -2.6047   -3.1428   -0.6593 H   0  0  0  0  0  0  0  0  0  0  0  0
   -1.8792   -4.1672    1.5292 H   0  0  0  0  0  0  0  0  0  0  0  0
   -3.4068   -3.4798    2.3538 H   0  0  0  0  0  0  0  0  0  0  0  0
   -3.4000   -5.4769   -0.0497 H   0  0  0  0  0  0  0  0  0  0  0  0
   -4.8889   -4.7757    0.7720 H   0  0  0  0  0  0  0  0  0  0  0  0
   -0.6569    1.5305    0.8813 H   0  0  0  0  0  0  0  0  0  0  0  0
    0.4236    0.1854    1.2852 H   0  0  0  0  0  0  0  0  0  0  0  0
    3.7618   -0.6992   -2.5812 H   0  0  0  0  0  0  0  0  0  0  0  0
  1  2  1  0
  2  3  1  0
  3  4  1  0
  4  5  2  0
  5  6  1  0
  6  7  2  0
  6  8  1  0
  5  9  1  0
  9 10  2  0
 10 11  1  0
 11 12  2  0
 12 13  1  0
 13 14  1  0
 14 15  1  0
 15 16  1  0
 16 17  1  0
 17 18  1  0
 18 19  1  0
 19 20  1  1
 19 21  1  0
 21 22  1  0
 22 23  1  0
 23 24  1  0
 24 25  1  0
 25 26  1  0
 26 27  2  0
 27 28  1  0
 28 29  2  0
 29 30  1  0
 30 31  2  0
 31 32  1  0
 32 33  1  0
 33 34  1  0
 33 35  1  0
 33 36  1  0
 25 37  2  0
 37 38  1  0
 38 39  1  0
 39 40  1  0
 40 41  1  0
 41 42  1  0
 19 43  1  0
 12 44  1  0
 44 45  2  0
 45  3  1  0
 45  9  1  0
 17 13  1  0
 39 24  2  0
 42 40  1  0
 43 14  1  0
 31 26  1  0
  1 46  1  0
  1 47  1  0
  1 48  1  0
  2 49  1  0
  2 50  1  0
  4 51  1  0
  8 52  1  0
 10 53  1  0
 11 54  1  0
 14 55  1  1
 15 56  1  0
 15 57  1  0
 16 58  1  0
 16 59  1  0
 17 60  1  6
 18 61  1  0
 18 62  1  0
 21 63  1  0
 21 64  1  0
 23 65  1  0
 23 66  1  0
 27 67  1  0
 28 68  1  0
 29 69  1  0
 30 70  1  0
 40 71  1  0
 41 72  1  0
 41 73  1  0
 42 74  1  0
 42 75  1  0
 43 76  1  0
 43 77  1  0
 44 78  1  0
M  END
>  <pEC50>  (34) 
6.252

$$$$
41
     RDKit          3D

 71 77  0  0  0  0  0  0  0  0999 V2000
    7.1144   -3.3933   -0.9259 O   0  0  0  0  0  0  0  0  0  0  0  0
    7.6945   -2.7050   -0.0915 C   0  0  0  0  0  0  0  0  0  0  0  0
    8.9233   -3.1146    0.3793 O   0  0  0  0  0  0  0  0  0  0  0  0
    7.0697   -1.4459    0.3985 C   0  0  0  0  0  0  0  0  0  0  0  0
    7.7704   -0.7031    1.3339 C   0  0  0  0  0  0  0  0  0  0  0  0
    6.6742    0.6993    1.6271 S   0  0  0  0  0  0  0  0  0  0  0  0
    5.4398    0.2017    0.5352 C   0  0  0  0  0  0  0  0  0  0  0  0
    4.2061    0.8223    0.2119 C   0  0  0  0  0  0  0  0  0  0  0  0
    3.3607    0.2368   -0.7002 C   0  0  0  0  0  0  0  0  0  0  0  0
    2.1298    0.8541   -1.0343 N   0  0  0  0  0  0  0  0  0  0  0  0
    1.6094    2.1570   -0.6793 C   0  0  1  0  0  0  0  0  0  0  0  0
    1.0909    2.6946   -2.0135 C   0  0  0  0  0  0  0  0  0  0  0  0
    0.7266    1.4575   -2.7701 C   0  0  0  0  0  0  0  0  0  0  0  0
    1.0389    0.3032   -1.8444 C   0  0  2  0  0  0  0  0  0  0  0  0
   -0.1599    0.0001   -1.0259 C   0  0  0  0  0  0  0  0  0  0  0  0
   -0.4504    0.8961    0.1221 C   0  0  2  0  0  0  0  0  0  0  0  0
   -0.5652    0.2137    1.3126 F   0  0  0  0  0  0  0  0  0  0  0  0
   -1.7683    1.5737   -0.1704 C   0  0  0  0  0  0  0  0  0  0  0  0
   -2.8552    0.7811   -0.3575 O   0  0  0  0  0  0  0  0  0  0  0  0
   -3.2521    0.0039    0.6665 C   0  0  0  0  0  0  0  0  0  0  0  0
   -4.4893   -0.7851    0.3758 C   0  0  0  0  0  0  0  0  0  0  0  0
   -5.7743   -0.3379    0.3376 C   0  0  0  0  0  0  0  0  0  0  0  0
   -6.2499    1.0159    0.5673 C   0  0  0  0  0  0  0  0  0  0  0  0
   -5.8744    2.1029   -0.1826 C   0  0  0  0  0  0  0  0  0  0  0  0
   -6.3417    3.3896    0.0253 C   0  0  0  0  0  0  0  0  0  0  0  0
   -7.2444    3.6250    1.0443 C   0  0  0  0  0  0  0  0  0  0  0  0
   -7.6425    2.5490    1.8178 C   0  0  0  0  0  0  0  0  0  0  0  0
   -7.1609    1.2776    1.5888 C   0  0  0  0  0  0  0  0  0  0  0  0
   -7.5756    0.2324    2.3743 O   0  0  0  0  0  0  0  0  0  0  0  0
   -8.4939    0.3720    3.4433 C   0  0  0  0  0  0  0  0  0  0  0  0
   -9.6875    0.8599    2.9565 F   0  0  0  0  0  0  0  0  0  0  0  0
   -8.0035    1.2080    4.4283 F   0  0  0  0  0  0  0  0  0  0  0  0
   -8.7240   -0.8819    3.9671 F   0  0  0  0  0  0  0  0  0  0  0  0
   -6.5362   -1.4410    0.0547 N   0  0  0  0  0  0  0  0  0  0  0  0
   -5.7366   -2.4619   -0.0634 O   0  0  0  0  0  0  0  0  0  0  0  0
   -4.4915   -2.1314    0.1187 C   0  0  0  0  0  0  0  0  0  0  0  0
   -3.3272   -3.0332    0.0578 C   0  0  0  0  0  0  0  0  0  0  0  0
   -2.6467   -3.2751   -1.2891 C   0  0  0  0  0  0  0  0  0  0  0  0
   -3.5143   -4.3895   -0.6530 C   0  0  0  0  0  0  0  0  0  0  0  0
    0.5507    2.0002    0.3357 C   0  0  0  0  0  0  0  0  0  0  0  0
    3.7928   -0.9344   -1.2389 C   0  0  0  0  0  0  0  0  0  0  0  0
    4.9852   -1.5405   -0.9310 C   0  0  0  0  0  0  0  0  0  0  0  0
    5.8731   -0.9573    0.0053 C   0  0  0  0  0  0  0  0  0  0  0  0
    9.4242   -3.9113   -0.0180 H   0  0  0  0  0  0  0  0  0  0  0  0
    8.7469   -0.8678    1.8163 H   0  0  0  0  0  0  0  0  0  0  0  0
    3.9725    1.7372    0.6951 H   0  0  0  0  0  0  0  0  0  0  0  0
    2.4014    2.8209   -0.2767 H   0  0  0  0  0  0  0  0  0  0  0  0
    0.2874    3.4073   -1.8335 H   0  0  0  0  0  0  0  0  0  0  0  0
    1.9023    3.2498   -2.5360 H   0  0  0  0  0  0  0  0  0  0  0  0
    1.3356    1.4073   -3.6996 H   0  0  0  0  0  0  0  0  0  0  0  0
   -0.3520    1.4596   -3.0547 H   0  0  0  0  0  0  0  0  0  0  0  0
    1.3638   -0.5630   -2.4427 H   0  0  0  0  0  0  0  0  0  0  0  0
   -0.0148   -1.0403   -0.6054 H   0  0  0  0  0  0  0  0  0  0  0  0
   -1.0263   -0.1160   -1.7250 H   0  0  0  0  0  0  0  0  0  0  0  0
   -1.9655    2.3889    0.5792 H   0  0  0  0  0  0  0  0  0  0  0  0
   -1.6103    2.1567   -1.1355 H   0  0  0  0  0  0  0  0  0  0  0  0
   -3.4062    0.6393    1.5781 H   0  0  0  0  0  0  0  0  0  0  0  0
   -2.4272   -0.7185    0.9393 H   0  0  0  0  0  0  0  0  0  0  0  0
   -5.1812    1.9726   -0.9943 H   0  0  0  0  0  0  0  0  0  0  0  0
   -6.0096    4.2163   -0.6007 H   0  0  0  0  0  0  0  0  0  0  0  0
   -7.6293    4.6310    1.2309 H   0  0  0  0  0  0  0  0  0  0  0  0
   -8.3544    2.7858    2.6070 H   0  0  0  0  0  0  0  0  0  0  0  0
   -2.6247   -3.0268    0.9219 H   0  0  0  0  0  0  0  0  0  0  0  0
   -1.5590   -3.4739   -1.2938 H   0  0  0  0  0  0  0  0  0  0  0  0
   -3.0680   -2.8583   -2.2040 H   0  0  0  0  0  0  0  0  0  0  0  0
   -4.5151   -4.5588   -1.1006 H   0  0  0  0  0  0  0  0  0  0  0  0
   -2.9676   -5.2531   -0.2017 H   0  0  0  0  0  0  0  0  0  0  0  0
    1.0717    1.8653    1.3278 H   0  0  0  0  0  0  0  0  0  0  0  0
    0.0561    3.0092    0.4524 H   0  0  0  0  0  0  0  0  0  0  0  0
    3.1329   -1.4112   -1.9653 H   0  0  0  0  0  0  0  0  0  0  0  0
    5.1963   -2.4692   -1.4381 H   0  0  0  0  0  0  0  0  0  0  0  0
  1  2  2  0
  2  3  1  0
  2  4  1  0
  4  5  2  0
  5  6  1  0
  6  7  1  0
  7  8  2  0
  8  9  1  0
  9 10  1  0
 10 11  1  0
 11 12  1  0
 12 13  1  0
 13 14  1  0
 14 15  1  0
 15 16  1  0
 16 17  1  1
 16 18  1  0
 18 19  1  0
 19 20  1  0
 20 21  1  0
 21 22  1  0
 22 23  1  0
 23 24  2  0
 24 25  1  0
 25 26  2  0
 26 27  1  0
 27 28  2  0
 28 29  1  0
 29 30  1  0
 30 31  1  0
 30 32  1  0
 30 33  1  0
 22 34  2  0
 34 35  1  0
 35 36  1  0
 36 37  1  0
 37 38  1  0
 38 39  1  0
 16 40  1  0
  9 41  2  0
 41 42  1  0
 42 43  2  0
 43  4  1  0
 43  7  1  0
 14 10  1  0
 36 21  2  0
 39 37  1  0
 40 11  1  0
 28 23  1  0
  3 44  1  0
  5 45  1  0
  8 46  1  0
 11 47  1  1
 12 48  1  0
 12 49  1  0
 13 50  1  0
 13 51  1  0
 14 52  1  6
 15 53  1  0
 15 54  1  0
 18 55  1  0
 18 56  1  0
 20 57  1  0
 20 58  1  0
 24 59  1  0
 25 60  1  0
 26 61  1  0
 27 62  1  0
 37 63  1  0
 38 64  1  0
 38 65  1  0
 39 66  1  0
 39 67  1  0
 40 68  1  0
 40 69  1  0
 41 70  1  0
 42 71  1  0
M  END
>  <pEC50>  (35) 
6.071

$$$$
42
     RDKit          3D

 70 76  0  0  0  0  0  0  0  0999 V2000
    9.7240   -3.1648   -1.8711 O   0  0  0  0  0  0  0  0  0  0  0  0
    9.2032   -2.3997   -1.0149 C   0  0  0  0  0  0  0  0  0  0  0  0
    9.9886   -1.9957    0.0503 O   0  0  0  0  0  0  0  0  0  0  0  0
    7.8311   -1.9740   -1.1633 C   0  0  0  0  0  0  0  0  0  0  0  0
    7.0472   -2.3692   -2.2368 C   0  0  0  0  0  0  0  0  0  0  0  0
    5.7559   -1.9984   -2.4203 C   0  0  0  0  0  0  0  0  0  0  0  0
    5.1077   -2.4609   -3.5180 F   0  0  0  0  0  0  0  0  0  0  0  0
    5.1140   -1.1549   -1.4894 C   0  0  0  0  0  0  0  0  0  0  0  0
    3.8958   -0.7187   -1.5272 N   0  0  0  0  0  0  0  0  0  0  0  0
    3.3586    0.0344   -0.6718 C   0  0  0  0  0  0  0  0  0  0  0  0
    2.1343    0.6750   -0.3997 N   0  0  0  0  0  0  0  0  0  0  0  0
    0.9484    0.6556   -1.2103 C   0  0  2  0  0  0  0  0  0  0  0  0
    0.6505    2.1650   -1.2683 C   0  0  0  0  0  0  0  0  0  0  0  0
    1.1032    2.6738    0.0640 C   0  0  0  0  0  0  0  0  0  0  0  0
    1.7563    1.4881    0.7477 C   0  0  1  0  0  0  0  0  0  0  0  0
    0.7902    0.6684    1.5549 C   0  0  0  0  0  0  0  0  0  0  0  0
   -0.5073    0.3825    0.7932 C   0  0  2  0  0  0  0  0  0  0  0  0
   -1.3045    1.4867    0.8546 F   0  0  0  0  0  0  0  0  0  0  0  0
   -1.1820   -0.7169    1.6046 C   0  0  0  0  0  0  0  0  0  0  0  0
   -2.3697   -1.1523    1.1446 O   0  0  0  0  0  0  0  0  0  0  0  0
   -3.4272   -0.3028    1.0975 C   0  0  0  0  0  0  0  0  0  0  0  0
   -4.6201   -1.0338    0.5532 C   0  0  0  0  0  0  0  0  0  0  0  0
   -5.8449   -0.4067    0.3275 C   0  0  0  0  0  0  0  0  0  0  0  0
   -6.2830    0.9517    0.5650 C   0  0  0  0  0  0  0  0  0  0  0  0
   -6.2113    1.6009    1.7789 C   0  0  0  0  0  0  0  0  0  0  0  0
   -6.6542    2.8976    1.9539 C   0  0  0  0  0  0  0  0  0  0  0  0
   -7.1941    3.5977    0.8964 C   0  0  0  0  0  0  0  0  0  0  0  0
   -7.2765    2.9689   -0.3273 C   0  0  0  0  0  0  0  0  0  0  0  0
   -6.8264    1.6702   -0.4790 C   0  0  0  0  0  0  0  0  0  0  0  0
   -6.9224    1.0658   -1.7199 O   0  0  0  0  0  0  0  0  0  0  0  0
   -5.8809    1.1617   -2.6717 C   0  0  0  0  0  0  0  0  0  0  0  0
   -4.7154    0.6256   -2.1771 F   0  0  0  0  0  0  0  0  0  0  0  0
   -5.6346    2.4737   -3.0330 F   0  0  0  0  0  0  0  0  0  0  0  0
   -6.2572    0.5104   -3.8471 F   0  0  0  0  0  0  0  0  0  0  0  0
   -6.6302   -1.3781   -0.1917 N   0  0  0  0  0  0  0  0  0  0  0  0
   -5.9843   -2.4828   -0.2822 O   0  0  0  0  0  0  0  0  0  0  0  0
   -4.7519   -2.3410    0.1571 C   0  0  0  0  0  0  0  0  0  0  0  0
   -3.6914   -3.3887    0.2253 C   0  0  0  0  0  0  0  0  0  0  0  0
   -3.9724   -4.6743    0.9117 C   0  0  0  0  0  0  0  0  0  0  0  0
   -3.1885   -3.7000    1.6768 C   0  0  0  0  0  0  0  0  0  0  0  0
   -0.1659   -0.0946   -0.5778 C   0  0  0  0  0  0  0  0  0  0  0  0
    4.8062    0.2395    0.4960 S   0  0  0  0  0  0  0  0  0  0  0  0
    5.8952   -0.7697   -0.4330 C   0  0  0  0  0  0  0  0  0  0  0  0
    7.2088   -1.1515   -0.2534 C   0  0  0  0  0  0  0  0  0  0  0  0
   11.0045   -1.9471    0.0058 H   0  0  0  0  0  0  0  0  0  0  0  0
    7.5499   -3.0242   -2.9566 H   0  0  0  0  0  0  0  0  0  0  0  0
    1.1393    0.2961   -2.2433 H   0  0  0  0  0  0  0  0  0  0  0  0
   -0.3914    2.3751   -1.5209 H   0  0  0  0  0  0  0  0  0  0  0  0
    1.2792    2.5434   -2.1161 H   0  0  0  0  0  0  0  0  0  0  0  0
    1.8773    3.4492   -0.1005 H   0  0  0  0  0  0  0  0  0  0  0  0
    0.3017    3.1350    0.6666 H   0  0  0  0  0  0  0  0  0  0  0  0
    2.5962    1.7546    1.3883 H   0  0  0  0  0  0  0  0  0  0  0  0
    1.2839   -0.2676    1.8541 H   0  0  0  0  0  0  0  0  0  0  0  0
    0.4802    1.2792    2.4325 H   0  0  0  0  0  0  0  0  0  0  0  0
   -1.1832   -0.3694    2.6638 H   0  0  0  0  0  0  0  0  0  0  0  0
   -0.4658   -1.5885    1.5604 H   0  0  0  0  0  0  0  0  0  0  0  0
   -3.7323    0.0884    2.0945 H   0  0  0  0  0  0  0  0  0  0  0  0
   -3.3239    0.5836    0.4381 H   0  0  0  0  0  0  0  0  0  0  0  0
   -5.7961    1.0688    2.6337 H   0  0  0  0  0  0  0  0  0  0  0  0
   -6.5928    3.3922    2.9100 H   0  0  0  0  0  0  0  0  0  0  0  0
   -7.5393    4.6184    1.0465 H   0  0  0  0  0  0  0  0  0  0  0  0
   -7.7018    3.5263   -1.1469 H   0  0  0  0  0  0  0  0  0  0  0  0
   -2.8676   -3.3008   -0.5104 H   0  0  0  0  0  0  0  0  0  0  0  0
   -3.4526   -5.5968    0.5967 H   0  0  0  0  0  0  0  0  0  0  0  0
   -5.0249   -4.8495    1.2354 H   0  0  0  0  0  0  0  0  0  0  0  0
   -3.6672   -3.0693    2.4585 H   0  0  0  0  0  0  0  0  0  0  0  0
   -2.0913   -3.7983    1.7968 H   0  0  0  0  0  0  0  0  0  0  0  0
   -1.0281   -0.0932   -1.2750 H   0  0  0  0  0  0  0  0  0  0  0  0
    0.1477   -1.1591   -0.4926 H   0  0  0  0  0  0  0  0  0  0  0  0
    7.7227   -0.7902    0.6106 H   0  0  0  0  0  0  0  0  0  0  0  0
  1  2  2  0
  2  3  1  0
  2  4  1  0
  4  5  2  0
  5  6  1  0
  6  7  1  0
  6  8  2  0
  8  9  1  0
  9 10  2  0
 10 11  1  0
 11 12  1  0
 12 13  1  0
 13 14  1  0
 14 15  1  0
 15 16  1  0
 16 17  1  0
 17 18  1  6
 17 19  1  0
 19 20  1  0
 20 21  1  0
 21 22  1  0
 22 23  1  0
 23 24  1  0
 24 25  2  0
 25 26  1  0
 26 27  2  0
 27 28  1  0
 28 29  2  0
 29 30  1  0
 30 31  1  0
 31 32  1  0
 31 33  1  0
 31 34  1  0
 23 35  2  0
 35 36  1  0
 36 37  1  0
 37 38  1  0
 38 39  1  0
 39 40  1  0
 17 41  1  0
 10 42  1  0
 42 43  1  0
 43 44  2  0
 44  4  1  0
 43  8  1  0
 15 11  1  0
 37 22  2  0
 40 38  1  0
 41 12  1  0
 29 24  1  0
  3 45  1  0
  5 46  1  0
 12 47  1  6
 13 48  1  0
 13 49  1  0
 14 50  1  0
 14 51  1  0
 15 52  1  1
 16 53  1  0
 16 54  1  0
 19 55  1  0
 19 56  1  0
 21 57  1  0
 21 58  1  0
 25 59  1  0
 26 60  1  0
 27 61  1  0
 28 62  1  0
 38 63  1  0
 39 64  1  0
 39 65  1  0
 40 66  1  0
 40 67  1  0
 41 68  1  0
 41 69  1  0
 44 70  1  0
M  END
>  <pEC50>  (36) 
5.599

$$$$
